* NGSPICE file created from caravel_hack_soc.ext - technology: gf180mcuC

* Black-box entry subcircuit for gf180mcu_fd_sc_mcu7t5v0__fill_1 abstract view
.subckt gf180mcu_fd_sc_mcu7t5v0__fill_1 VDD VSS
.ends

* Black-box entry subcircuit for gf180mcu_fd_sc_mcu7t5v0__fill_2 abstract view
.subckt gf180mcu_fd_sc_mcu7t5v0__fill_2 VDD VSS
.ends

* Black-box entry subcircuit for gf180mcu_fd_sc_mcu7t5v0__aoi211_2 abstract view
.subckt gf180mcu_fd_sc_mcu7t5v0__aoi211_2 A1 A2 B C ZN VDD VSS
.ends

* Black-box entry subcircuit for gf180mcu_fd_sc_mcu7t5v0__aoi21_1 abstract view
.subckt gf180mcu_fd_sc_mcu7t5v0__aoi21_1 A1 A2 B ZN VDD VSS
.ends

* Black-box entry subcircuit for gf180mcu_fd_sc_mcu7t5v0__nand2_2 abstract view
.subckt gf180mcu_fd_sc_mcu7t5v0__nand2_2 A1 A2 ZN VDD VSS
.ends

* Black-box entry subcircuit for gf180mcu_fd_sc_mcu7t5v0__oai31_1 abstract view
.subckt gf180mcu_fd_sc_mcu7t5v0__oai31_1 A1 A2 A3 B ZN VDD VSS
.ends

* Black-box entry subcircuit for gf180mcu_fd_sc_mcu7t5v0__fillcap_16 abstract view
.subckt gf180mcu_fd_sc_mcu7t5v0__fillcap_16 VDD VSS
.ends

* Black-box entry subcircuit for gf180mcu_fd_sc_mcu7t5v0__mux2_2 abstract view
.subckt gf180mcu_fd_sc_mcu7t5v0__mux2_2 I0 I1 S Z VDD VSS
.ends

* Black-box entry subcircuit for gf180mcu_fd_sc_mcu7t5v0__fillcap_4 abstract view
.subckt gf180mcu_fd_sc_mcu7t5v0__fillcap_4 VDD VSS
.ends

* Black-box entry subcircuit for gf180mcu_fd_sc_mcu7t5v0__aoi211_1 abstract view
.subckt gf180mcu_fd_sc_mcu7t5v0__aoi211_1 A1 A2 B C ZN VDD VSS
.ends

* Black-box entry subcircuit for gf180mcu_fd_sc_mcu7t5v0__clkbuf_1 abstract view
.subckt gf180mcu_fd_sc_mcu7t5v0__clkbuf_1 I Z VDD VSS
.ends

* Black-box entry subcircuit for gf180mcu_fd_sc_mcu7t5v0__fillcap_8 abstract view
.subckt gf180mcu_fd_sc_mcu7t5v0__fillcap_8 VDD VSS
.ends

* Black-box entry subcircuit for gf180mcu_fd_sc_mcu7t5v0__nand2_1 abstract view
.subckt gf180mcu_fd_sc_mcu7t5v0__nand2_1 A1 A2 ZN VDD VSS
.ends

* Black-box entry subcircuit for gf180mcu_fd_sc_mcu7t5v0__nor3_1 abstract view
.subckt gf180mcu_fd_sc_mcu7t5v0__nor3_1 A1 A2 A3 ZN VDD VSS
.ends

* Black-box entry subcircuit for gf180mcu_fd_sc_mcu7t5v0__fillcap_64 abstract view
.subckt gf180mcu_fd_sc_mcu7t5v0__fillcap_64 VDD VSS
.ends

* Black-box entry subcircuit for gf180mcu_fd_sc_mcu7t5v0__buf_2 abstract view
.subckt gf180mcu_fd_sc_mcu7t5v0__buf_2 I Z VDD VSS
.ends

* Black-box entry subcircuit for gf180mcu_fd_sc_mcu7t5v0__tiel abstract view
.subckt gf180mcu_fd_sc_mcu7t5v0__tiel ZN VDD VSS
.ends

* Black-box entry subcircuit for gf180mcu_fd_sc_mcu7t5v0__fillcap_32 abstract view
.subckt gf180mcu_fd_sc_mcu7t5v0__fillcap_32 VDD VSS
.ends

* Black-box entry subcircuit for gf180mcu_fd_sc_mcu7t5v0__or3_1 abstract view
.subckt gf180mcu_fd_sc_mcu7t5v0__or3_1 A1 A2 A3 Z VDD VSS
.ends

* Black-box entry subcircuit for gf180mcu_fd_sc_mcu7t5v0__or2_1 abstract view
.subckt gf180mcu_fd_sc_mcu7t5v0__or2_1 A1 A2 Z VDD VSS
.ends

* Black-box entry subcircuit for gf180mcu_fd_sc_mcu7t5v0__filltie abstract view
.subckt gf180mcu_fd_sc_mcu7t5v0__filltie VDD VSS
.ends

* Black-box entry subcircuit for gf180mcu_fd_sc_mcu7t5v0__dffq_1 abstract view
.subckt gf180mcu_fd_sc_mcu7t5v0__dffq_1 D CLK Q VDD VSS
.ends

* Black-box entry subcircuit for gf180mcu_fd_sc_mcu7t5v0__dffnq_1 abstract view
.subckt gf180mcu_fd_sc_mcu7t5v0__dffnq_1 D CLKN Q VDD VSS
.ends

* Black-box entry subcircuit for gf180mcu_fd_sc_mcu7t5v0__oai21_1 abstract view
.subckt gf180mcu_fd_sc_mcu7t5v0__oai21_1 A1 A2 B ZN VDD VSS
.ends

* Black-box entry subcircuit for gf180mcu_fd_sc_mcu7t5v0__clkbuf_16 abstract view
.subckt gf180mcu_fd_sc_mcu7t5v0__clkbuf_16 I Z VDD VSS
.ends

* Black-box entry subcircuit for gf180mcu_fd_sc_mcu7t5v0__nor2_1 abstract view
.subckt gf180mcu_fd_sc_mcu7t5v0__nor2_1 A1 A2 ZN VDD VSS
.ends

* Black-box entry subcircuit for gf180mcu_fd_sc_mcu7t5v0__mux4_1 abstract view
.subckt gf180mcu_fd_sc_mcu7t5v0__mux4_1 I0 I1 I2 I3 S0 S1 Z VDD VSS
.ends

* Black-box entry subcircuit for gf180mcu_fd_sc_mcu7t5v0__clkinv_1 abstract view
.subckt gf180mcu_fd_sc_mcu7t5v0__clkinv_1 I ZN VDD VSS
.ends

* Black-box entry subcircuit for gf180mcu_fd_sc_mcu7t5v0__xor2_1 abstract view
.subckt gf180mcu_fd_sc_mcu7t5v0__xor2_1 A1 A2 Z VDD VSS
.ends

* Black-box entry subcircuit for gf180mcu_fd_sc_mcu7t5v0__oai22_1 abstract view
.subckt gf180mcu_fd_sc_mcu7t5v0__oai22_1 A1 A2 B1 B2 ZN VDD VSS
.ends

* Black-box entry subcircuit for gf180mcu_fd_sc_mcu7t5v0__buf_4 abstract view
.subckt gf180mcu_fd_sc_mcu7t5v0__buf_4 I Z VDD VSS
.ends

* Black-box entry subcircuit for gf180mcu_fd_sc_mcu7t5v0__and2_1 abstract view
.subckt gf180mcu_fd_sc_mcu7t5v0__and2_1 A1 A2 Z VDD VSS
.ends

* Black-box entry subcircuit for gf180mcu_fd_sc_mcu7t5v0__dffq_2 abstract view
.subckt gf180mcu_fd_sc_mcu7t5v0__dffq_2 D CLK Q VDD VSS
.ends

* Black-box entry subcircuit for gf180mcu_fd_sc_mcu7t5v0__clkbuf_8 abstract view
.subckt gf180mcu_fd_sc_mcu7t5v0__clkbuf_8 I Z VDD VSS
.ends

* Black-box entry subcircuit for gf180mcu_fd_sc_mcu7t5v0__clkbuf_4 abstract view
.subckt gf180mcu_fd_sc_mcu7t5v0__clkbuf_4 I Z VDD VSS
.ends

* Black-box entry subcircuit for gf180mcu_fd_sc_mcu7t5v0__oai211_1 abstract view
.subckt gf180mcu_fd_sc_mcu7t5v0__oai211_1 A1 A2 B C ZN VDD VSS
.ends

* Black-box entry subcircuit for gf180mcu_fd_sc_mcu7t5v0__nor4_2 abstract view
.subckt gf180mcu_fd_sc_mcu7t5v0__nor4_2 A1 A2 A3 A4 ZN VDD VSS
.ends

* Black-box entry subcircuit for gf180mcu_fd_sc_mcu7t5v0__nand4_1 abstract view
.subckt gf180mcu_fd_sc_mcu7t5v0__nand4_1 A1 A2 A3 A4 ZN VDD VSS
.ends

* Black-box entry subcircuit for gf180mcu_fd_sc_mcu7t5v0__endcap abstract view
.subckt gf180mcu_fd_sc_mcu7t5v0__endcap VDD VSS
.ends

* Black-box entry subcircuit for gf180mcu_fd_sc_mcu7t5v0__antenna abstract view
.subckt gf180mcu_fd_sc_mcu7t5v0__antenna I VDD VSS
.ends

* Black-box entry subcircuit for gf180mcu_fd_sc_mcu7t5v0__and3_1 abstract view
.subckt gf180mcu_fd_sc_mcu7t5v0__and3_1 A1 A2 A3 Z VDD VSS
.ends

* Black-box entry subcircuit for gf180mcu_fd_sc_mcu7t5v0__oai221_1 abstract view
.subckt gf180mcu_fd_sc_mcu7t5v0__oai221_1 A1 A2 B1 B2 C ZN VDD VSS
.ends

* Black-box entry subcircuit for gf180mcu_fd_sc_mcu7t5v0__clkbuf_3 abstract view
.subckt gf180mcu_fd_sc_mcu7t5v0__clkbuf_3 I Z VDD VSS
.ends

* Black-box entry subcircuit for gf180mcu_fd_sc_mcu7t5v0__buf_3 abstract view
.subckt gf180mcu_fd_sc_mcu7t5v0__buf_3 I Z VDD VSS
.ends

* Black-box entry subcircuit for gf180mcu_fd_sc_mcu7t5v0__aoi21_2 abstract view
.subckt gf180mcu_fd_sc_mcu7t5v0__aoi21_2 A1 A2 B ZN VDD VSS
.ends

* Black-box entry subcircuit for gf180mcu_fd_sc_mcu7t5v0__nand3_1 abstract view
.subckt gf180mcu_fd_sc_mcu7t5v0__nand3_1 A1 A2 A3 ZN VDD VSS
.ends

* Black-box entry subcircuit for gf180mcu_fd_sc_mcu7t5v0__xnor2_1 abstract view
.subckt gf180mcu_fd_sc_mcu7t5v0__xnor2_1 A1 A2 ZN VDD VSS
.ends

* Black-box entry subcircuit for gf180mcu_fd_sc_mcu7t5v0__aoi22_1 abstract view
.subckt gf180mcu_fd_sc_mcu7t5v0__aoi22_1 A1 A2 B1 B2 ZN VDD VSS
.ends

* Black-box entry subcircuit for gf180mcu_fd_sc_mcu7t5v0__xor2_2 abstract view
.subckt gf180mcu_fd_sc_mcu7t5v0__xor2_2 A1 A2 Z VDD VSS
.ends

* Black-box entry subcircuit for gf180mcu_fd_sc_mcu7t5v0__clkinv_2 abstract view
.subckt gf180mcu_fd_sc_mcu7t5v0__clkinv_2 I ZN VDD VSS
.ends

* Black-box entry subcircuit for gf180mcu_fd_sc_mcu7t5v0__clkinv_4 abstract view
.subckt gf180mcu_fd_sc_mcu7t5v0__clkinv_4 I ZN VDD VSS
.ends

* Black-box entry subcircuit for gf180mcu_fd_sc_mcu7t5v0__aoi221_1 abstract view
.subckt gf180mcu_fd_sc_mcu7t5v0__aoi221_1 A1 A2 B1 B2 C ZN VDD VSS
.ends

* Black-box entry subcircuit for gf180mcu_fd_sc_mcu7t5v0__oai31_2 abstract view
.subckt gf180mcu_fd_sc_mcu7t5v0__oai31_2 A1 A2 A3 B ZN VDD VSS
.ends

* Black-box entry subcircuit for gf180mcu_fd_sc_mcu7t5v0__nor3_2 abstract view
.subckt gf180mcu_fd_sc_mcu7t5v0__nor3_2 A1 A2 A3 ZN VDD VSS
.ends

* Black-box entry subcircuit for gf180mcu_fd_sc_mcu7t5v0__dffnq_2 abstract view
.subckt gf180mcu_fd_sc_mcu7t5v0__dffnq_2 D CLKN Q VDD VSS
.ends

* Black-box entry subcircuit for gf180mcu_fd_sc_mcu7t5v0__nor2_2 abstract view
.subckt gf180mcu_fd_sc_mcu7t5v0__nor2_2 A1 A2 ZN VDD VSS
.ends

* Black-box entry subcircuit for gf180mcu_fd_sc_mcu7t5v0__inv_1 abstract view
.subckt gf180mcu_fd_sc_mcu7t5v0__inv_1 I ZN VDD VSS
.ends

* Black-box entry subcircuit for gf180mcu_fd_sc_mcu7t5v0__nand3_2 abstract view
.subckt gf180mcu_fd_sc_mcu7t5v0__nand3_2 A1 A2 A3 ZN VDD VSS
.ends

* Black-box entry subcircuit for gf180mcu_fd_sc_mcu7t5v0__oai21_2 abstract view
.subckt gf180mcu_fd_sc_mcu7t5v0__oai21_2 A1 A2 B ZN VDD VSS
.ends

* Black-box entry subcircuit for gf180mcu_fd_sc_mcu7t5v0__clkbuf_2 abstract view
.subckt gf180mcu_fd_sc_mcu7t5v0__clkbuf_2 I Z VDD VSS
.ends

* Black-box entry subcircuit for gf180mcu_fd_sc_mcu7t5v0__nor4_1 abstract view
.subckt gf180mcu_fd_sc_mcu7t5v0__nor4_1 A1 A2 A3 A4 ZN VDD VSS
.ends

* Black-box entry subcircuit for gf180mcu_fd_sc_mcu7t5v0__buf_1 abstract view
.subckt gf180mcu_fd_sc_mcu7t5v0__buf_1 I Z VDD VSS
.ends

* Black-box entry subcircuit for gf180mcu_fd_sc_mcu7t5v0__nor4_4 abstract view
.subckt gf180mcu_fd_sc_mcu7t5v0__nor4_4 A1 A2 A3 A4 ZN VDD VSS
.ends

* Black-box entry subcircuit for gf180mcu_fd_sc_mcu7t5v0__nand4_2 abstract view
.subckt gf180mcu_fd_sc_mcu7t5v0__nand4_2 A1 A2 A3 A4 ZN VDD VSS
.ends

* Black-box entry subcircuit for gf180mcu_fd_sc_mcu7t5v0__or4_1 abstract view
.subckt gf180mcu_fd_sc_mcu7t5v0__or4_1 A1 A2 A3 A4 Z VDD VSS
.ends

* Black-box entry subcircuit for gf180mcu_fd_sc_mcu7t5v0__aoi221_2 abstract view
.subckt gf180mcu_fd_sc_mcu7t5v0__aoi221_2 A1 A2 B1 B2 C ZN VDD VSS
.ends

* Black-box entry subcircuit for gf180mcu_fd_sc_mcu7t5v0__nand3_4 abstract view
.subckt gf180mcu_fd_sc_mcu7t5v0__nand3_4 A1 A2 A3 ZN VDD VSS
.ends

* Black-box entry subcircuit for gf180mcu_fd_sc_mcu7t5v0__aoi22_2 abstract view
.subckt gf180mcu_fd_sc_mcu7t5v0__aoi22_2 A1 A2 B1 B2 ZN VDD VSS
.ends

* Black-box entry subcircuit for gf180mcu_fd_sc_mcu7t5v0__oai211_4 abstract view
.subckt gf180mcu_fd_sc_mcu7t5v0__oai211_4 A1 A2 B C ZN VDD VSS
.ends

* Black-box entry subcircuit for gf180mcu_fd_sc_mcu7t5v0__and4_2 abstract view
.subckt gf180mcu_fd_sc_mcu7t5v0__and4_2 A1 A2 A3 A4 Z VDD VSS
.ends

* Black-box entry subcircuit for gf180mcu_fd_sc_mcu7t5v0__aoi211_4 abstract view
.subckt gf180mcu_fd_sc_mcu7t5v0__aoi211_4 A1 A2 B C ZN VDD VSS
.ends

* Black-box entry subcircuit for gf180mcu_fd_sc_mcu7t5v0__and2_2 abstract view
.subckt gf180mcu_fd_sc_mcu7t5v0__and2_2 A1 A2 Z VDD VSS
.ends

* Black-box entry subcircuit for gf180mcu_fd_sc_mcu7t5v0__xor3_2 abstract view
.subckt gf180mcu_fd_sc_mcu7t5v0__xor3_2 A1 A2 A3 Z VDD VSS
.ends

* Black-box entry subcircuit for gf180mcu_fd_sc_mcu7t5v0__and4_4 abstract view
.subckt gf180mcu_fd_sc_mcu7t5v0__and4_4 A1 A2 A3 A4 Z VDD VSS
.ends

* Black-box entry subcircuit for gf180mcu_fd_sc_mcu7t5v0__inv_2 abstract view
.subckt gf180mcu_fd_sc_mcu7t5v0__inv_2 I ZN VDD VSS
.ends

* Black-box entry subcircuit for gf180mcu_fd_sc_mcu7t5v0__nor2_4 abstract view
.subckt gf180mcu_fd_sc_mcu7t5v0__nor2_4 A1 A2 ZN VDD VSS
.ends

* Black-box entry subcircuit for gf180mcu_fd_sc_mcu7t5v0__oai31_4 abstract view
.subckt gf180mcu_fd_sc_mcu7t5v0__oai31_4 A1 A2 A3 B ZN VDD VSS
.ends

* Black-box entry subcircuit for gf180mcu_fd_sc_mcu7t5v0__nand2_4 abstract view
.subckt gf180mcu_fd_sc_mcu7t5v0__nand2_4 A1 A2 ZN VDD VSS
.ends

* Black-box entry subcircuit for gf180mcu_fd_sc_mcu7t5v0__xnor3_1 abstract view
.subckt gf180mcu_fd_sc_mcu7t5v0__xnor3_1 A1 A2 A3 ZN VDD VSS
.ends

* Black-box entry subcircuit for gf180mcu_fd_sc_mcu7t5v0__nor3_4 abstract view
.subckt gf180mcu_fd_sc_mcu7t5v0__nor3_4 A1 A2 A3 ZN VDD VSS
.ends

* Black-box entry subcircuit for gf180mcu_fd_sc_mcu7t5v0__nand4_4 abstract view
.subckt gf180mcu_fd_sc_mcu7t5v0__nand4_4 A1 A2 A3 A4 ZN VDD VSS
.ends

* Black-box entry subcircuit for gf180mcu_fd_sc_mcu7t5v0__and4_1 abstract view
.subckt gf180mcu_fd_sc_mcu7t5v0__and4_1 A1 A2 A3 A4 Z VDD VSS
.ends

* Black-box entry subcircuit for gf180mcu_fd_sc_mcu7t5v0__oai32_2 abstract view
.subckt gf180mcu_fd_sc_mcu7t5v0__oai32_2 A1 A2 A3 B1 B2 ZN VDD VSS
.ends

* Black-box entry subcircuit for gf180mcu_fd_sc_mcu7t5v0__oai21_4 abstract view
.subckt gf180mcu_fd_sc_mcu7t5v0__oai21_4 A1 A2 B ZN VDD VSS
.ends

* Black-box entry subcircuit for gf180mcu_fd_sc_mcu7t5v0__inv_3 abstract view
.subckt gf180mcu_fd_sc_mcu7t5v0__inv_3 I ZN VDD VSS
.ends

* Black-box entry subcircuit for gf180mcu_fd_sc_mcu7t5v0__xor3_1 abstract view
.subckt gf180mcu_fd_sc_mcu7t5v0__xor3_1 A1 A2 A3 Z VDD VSS
.ends

* Black-box entry subcircuit for gf180mcu_fd_sc_mcu7t5v0__oai221_4 abstract view
.subckt gf180mcu_fd_sc_mcu7t5v0__oai221_4 A1 A2 B1 B2 C ZN VDD VSS
.ends

* Black-box entry subcircuit for gf180mcu_fd_sc_mcu7t5v0__oai221_2 abstract view
.subckt gf180mcu_fd_sc_mcu7t5v0__oai221_2 A1 A2 B1 B2 C ZN VDD VSS
.ends

* Black-box entry subcircuit for gf180mcu_fd_sc_mcu7t5v0__dlyb_1 abstract view
.subckt gf180mcu_fd_sc_mcu7t5v0__dlyb_1 I Z VDD VSS
.ends

* Black-box entry subcircuit for gf180mcu_fd_sc_mcu7t5v0__or2_2 abstract view
.subckt gf180mcu_fd_sc_mcu7t5v0__or2_2 A1 A2 Z VDD VSS
.ends

* Black-box entry subcircuit for gf180mcu_fd_sc_mcu7t5v0__aoi21_4 abstract view
.subckt gf180mcu_fd_sc_mcu7t5v0__aoi21_4 A1 A2 B ZN VDD VSS
.ends

* Black-box entry subcircuit for gf180mcu_fd_sc_mcu7t5v0__dlyd_1 abstract view
.subckt gf180mcu_fd_sc_mcu7t5v0__dlyd_1 I Z VDD VSS
.ends

* Black-box entry subcircuit for gf180mcu_fd_sc_mcu7t5v0__dlyc_1 abstract view
.subckt gf180mcu_fd_sc_mcu7t5v0__dlyc_1 I Z VDD VSS
.ends

* Black-box entry subcircuit for gf180mcu_fd_sc_mcu7t5v0__or4_2 abstract view
.subckt gf180mcu_fd_sc_mcu7t5v0__or4_2 A1 A2 A3 A4 Z VDD VSS
.ends

* Black-box entry subcircuit for gf180mcu_fd_sc_mcu7t5v0__oai222_2 abstract view
.subckt gf180mcu_fd_sc_mcu7t5v0__oai222_2 A1 A2 B1 B2 C1 C2 ZN VDD VSS
.ends

* Black-box entry subcircuit for gf180mcu_fd_sc_mcu7t5v0__oai33_1 abstract view
.subckt gf180mcu_fd_sc_mcu7t5v0__oai33_1 A1 A2 A3 B1 B2 B3 ZN VDD VSS
.ends

* Black-box entry subcircuit for gf180mcu_fd_sc_mcu7t5v0__clkinv_3 abstract view
.subckt gf180mcu_fd_sc_mcu7t5v0__clkinv_3 I ZN VDD VSS
.ends

* Black-box entry subcircuit for gf180mcu_fd_sc_mcu7t5v0__aoi22_4 abstract view
.subckt gf180mcu_fd_sc_mcu7t5v0__aoi22_4 A1 A2 B1 B2 ZN VDD VSS
.ends

* Black-box entry subcircuit for gf180mcu_fd_sc_mcu7t5v0__aoi222_1 abstract view
.subckt gf180mcu_fd_sc_mcu7t5v0__aoi222_1 A1 A2 B1 B2 C1 C2 ZN VDD VSS
.ends

* Black-box entry subcircuit for gf180mcu_fd_sc_mcu7t5v0__tieh abstract view
.subckt gf180mcu_fd_sc_mcu7t5v0__tieh Z VDD VSS
.ends

* Black-box entry subcircuit for gf180mcu_fd_sc_mcu7t5v0__oai22_2 abstract view
.subckt gf180mcu_fd_sc_mcu7t5v0__oai22_2 A1 A2 B1 B2 ZN VDD VSS
.ends

.subckt caravel_hack_soc io_in[0] io_in[10] io_in[11] io_in[12] io_in[13] io_in[14]
+ io_in[15] io_in[16] io_in[17] io_in[18] io_in[19] io_in[1] io_in[20] io_in[21] io_in[22]
+ io_in[23] io_in[24] io_in[25] io_in[26] io_in[27] io_in[28] io_in[29] io_in[2] io_in[30]
+ io_in[31] io_in[32] io_in[33] io_in[34] io_in[35] io_in[36] io_in[37] io_in[3] io_in[4]
+ io_in[5] io_in[6] io_in[7] io_in[8] io_in[9] io_oeb[0] io_oeb[10] io_oeb[11] io_oeb[12]
+ io_oeb[13] io_oeb[14] io_oeb[15] io_oeb[16] io_oeb[17] io_oeb[18] io_oeb[19] io_oeb[1]
+ io_oeb[20] io_oeb[21] io_oeb[22] io_oeb[23] io_oeb[24] io_oeb[25] io_oeb[26] io_oeb[27]
+ io_oeb[28] io_oeb[29] io_oeb[2] io_oeb[30] io_oeb[31] io_oeb[32] io_oeb[33] io_oeb[34]
+ io_oeb[35] io_oeb[36] io_oeb[37] io_oeb[3] io_oeb[4] io_oeb[5] io_oeb[6] io_oeb[7]
+ io_oeb[8] io_oeb[9] io_out[0] io_out[10] io_out[11] io_out[12] io_out[13] io_out[14]
+ io_out[15] io_out[16] io_out[17] io_out[18] io_out[19] io_out[1] io_out[20] io_out[21]
+ io_out[22] io_out[23] io_out[24] io_out[25] io_out[26] io_out[27] io_out[28] io_out[29]
+ io_out[2] io_out[30] io_out[31] io_out[32] io_out[33] io_out[34] io_out[35] io_out[36]
+ io_out[37] io_out[3] io_out[4] io_out[5] io_out[6] io_out[7] io_out[8] io_out[9]
+ irq[0] irq[1] irq[2] la_data_in[0] la_data_in[10] la_data_in[11] la_data_in[12]
+ la_data_in[13] la_data_in[14] la_data_in[15] la_data_in[16] la_data_in[17] la_data_in[18]
+ la_data_in[19] la_data_in[1] la_data_in[20] la_data_in[21] la_data_in[22] la_data_in[23]
+ la_data_in[24] la_data_in[25] la_data_in[26] la_data_in[27] la_data_in[28] la_data_in[29]
+ la_data_in[2] la_data_in[30] la_data_in[31] la_data_in[32] la_data_in[33] la_data_in[34]
+ la_data_in[35] la_data_in[36] la_data_in[37] la_data_in[38] la_data_in[39] la_data_in[3]
+ la_data_in[40] la_data_in[41] la_data_in[42] la_data_in[43] la_data_in[44] la_data_in[45]
+ la_data_in[46] la_data_in[47] la_data_in[48] la_data_in[49] la_data_in[4] la_data_in[50]
+ la_data_in[51] la_data_in[52] la_data_in[53] la_data_in[54] la_data_in[55] la_data_in[56]
+ la_data_in[57] la_data_in[58] la_data_in[59] la_data_in[5] la_data_in[60] la_data_in[61]
+ la_data_in[62] la_data_in[63] la_data_in[6] la_data_in[7] la_data_in[8] la_data_in[9]
+ la_data_out[0] la_data_out[10] la_data_out[11] la_data_out[12] la_data_out[13] la_data_out[14]
+ la_data_out[15] la_data_out[16] la_data_out[17] la_data_out[18] la_data_out[19]
+ la_data_out[1] la_data_out[20] la_data_out[21] la_data_out[22] la_data_out[23] la_data_out[24]
+ la_data_out[25] la_data_out[26] la_data_out[27] la_data_out[28] la_data_out[29]
+ la_data_out[2] la_data_out[30] la_data_out[31] la_data_out[32] la_data_out[33] la_data_out[34]
+ la_data_out[35] la_data_out[36] la_data_out[37] la_data_out[38] la_data_out[39]
+ la_data_out[3] la_data_out[40] la_data_out[41] la_data_out[42] la_data_out[43] la_data_out[44]
+ la_data_out[45] la_data_out[46] la_data_out[47] la_data_out[48] la_data_out[49]
+ la_data_out[4] la_data_out[50] la_data_out[51] la_data_out[52] la_data_out[53] la_data_out[54]
+ la_data_out[55] la_data_out[56] la_data_out[57] la_data_out[58] la_data_out[59]
+ la_data_out[5] la_data_out[60] la_data_out[61] la_data_out[62] la_data_out[63] la_data_out[6]
+ la_data_out[7] la_data_out[8] la_data_out[9] la_oenb[0] la_oenb[10] la_oenb[11]
+ la_oenb[12] la_oenb[13] la_oenb[14] la_oenb[15] la_oenb[16] la_oenb[17] la_oenb[18]
+ la_oenb[19] la_oenb[1] la_oenb[20] la_oenb[21] la_oenb[22] la_oenb[23] la_oenb[24]
+ la_oenb[25] la_oenb[26] la_oenb[27] la_oenb[28] la_oenb[29] la_oenb[2] la_oenb[30]
+ la_oenb[31] la_oenb[32] la_oenb[33] la_oenb[34] la_oenb[35] la_oenb[36] la_oenb[37]
+ la_oenb[38] la_oenb[39] la_oenb[3] la_oenb[40] la_oenb[41] la_oenb[42] la_oenb[43]
+ la_oenb[44] la_oenb[45] la_oenb[46] la_oenb[47] la_oenb[48] la_oenb[49] la_oenb[4]
+ la_oenb[50] la_oenb[51] la_oenb[52] la_oenb[53] la_oenb[54] la_oenb[55] la_oenb[56]
+ la_oenb[57] la_oenb[58] la_oenb[59] la_oenb[5] la_oenb[60] la_oenb[61] la_oenb[62]
+ la_oenb[63] la_oenb[6] la_oenb[7] la_oenb[8] la_oenb[9] vdd vss wb_clk_i wb_rst_i
+ wbs_ack_o wbs_adr_i[0] wbs_adr_i[10] wbs_adr_i[11] wbs_adr_i[12] wbs_adr_i[13] wbs_adr_i[14]
+ wbs_adr_i[15] wbs_adr_i[16] wbs_adr_i[17] wbs_adr_i[18] wbs_adr_i[19] wbs_adr_i[1]
+ wbs_adr_i[20] wbs_adr_i[21] wbs_adr_i[22] wbs_adr_i[23] wbs_adr_i[24] wbs_adr_i[25]
+ wbs_adr_i[26] wbs_adr_i[27] wbs_adr_i[28] wbs_adr_i[29] wbs_adr_i[2] wbs_adr_i[30]
+ wbs_adr_i[31] wbs_adr_i[3] wbs_adr_i[4] wbs_adr_i[5] wbs_adr_i[6] wbs_adr_i[7] wbs_adr_i[8]
+ wbs_adr_i[9] wbs_cyc_i wbs_dat_i[0] wbs_dat_i[10] wbs_dat_i[11] wbs_dat_i[12] wbs_dat_i[13]
+ wbs_dat_i[14] wbs_dat_i[15] wbs_dat_i[16] wbs_dat_i[17] wbs_dat_i[18] wbs_dat_i[19]
+ wbs_dat_i[1] wbs_dat_i[20] wbs_dat_i[21] wbs_dat_i[22] wbs_dat_i[23] wbs_dat_i[24]
+ wbs_dat_i[25] wbs_dat_i[26] wbs_dat_i[27] wbs_dat_i[28] wbs_dat_i[29] wbs_dat_i[2]
+ wbs_dat_i[30] wbs_dat_i[31] wbs_dat_i[3] wbs_dat_i[4] wbs_dat_i[5] wbs_dat_i[6]
+ wbs_dat_i[7] wbs_dat_i[8] wbs_dat_i[9] wbs_dat_o[0] wbs_dat_o[10] wbs_dat_o[11]
+ wbs_dat_o[12] wbs_dat_o[13] wbs_dat_o[14] wbs_dat_o[15] wbs_dat_o[16] wbs_dat_o[17]
+ wbs_dat_o[18] wbs_dat_o[19] wbs_dat_o[1] wbs_dat_o[20] wbs_dat_o[21] wbs_dat_o[22]
+ wbs_dat_o[23] wbs_dat_o[24] wbs_dat_o[25] wbs_dat_o[26] wbs_dat_o[27] wbs_dat_o[28]
+ wbs_dat_o[29] wbs_dat_o[2] wbs_dat_o[30] wbs_dat_o[31] wbs_dat_o[3] wbs_dat_o[4]
+ wbs_dat_o[5] wbs_dat_o[6] wbs_dat_o[7] wbs_dat_o[8] wbs_dat_o[9] wbs_sel_i[0] wbs_sel_i[1]
+ wbs_sel_i[2] wbs_sel_i[3] wbs_stb_i wbs_we_i
XFILLER_41_1216 vdd vss gf180mcu_fd_sc_mcu7t5v0__fill_1
XFILLER_67_531 vdd vss gf180mcu_fd_sc_mcu7t5v0__fill_2
XFILLER_95_851 vdd vss gf180mcu_fd_sc_mcu7t5v0__fill_1
X_05903_ _01724_ _01728_ _01787_ _01789_ _01799_ vdd vss gf180mcu_fd_sc_mcu7t5v0__aoi211_2
X_09671_ _04639_ soc.rom_loader.current_address\[3\] _04647_ _04648_ vdd vss gf180mcu_fd_sc_mcu7t5v0__aoi21_1
X_06883_ _02482_ _02492_ _02548_ vdd vss gf180mcu_fd_sc_mcu7t5v0__nand2_2
X_05834_ _01732_ _01733_ _01729_ _01669_ _01734_ vdd vss gf180mcu_fd_sc_mcu7t5v0__oai31_1
XFILLER_27_428 vdd vss gf180mcu_fd_sc_mcu7t5v0__fillcap_16
X_08622_ _02149_ soc.spi_video_ram_1.write_fifo.fifo_mem\[30\]\[14\] _04011_ _04016_
+ vdd vss gf180mcu_fd_sc_mcu7t5v0__mux2_2
XFILLER_82_523 vdd vss gf180mcu_fd_sc_mcu7t5v0__fill_2
XFILLER_82_534 vdd vss gf180mcu_fd_sc_mcu7t5v0__fill_1
XFILLER_58_1702 vdd vss gf180mcu_fd_sc_mcu7t5v0__fillcap_16
XFILLER_199_208 vdd vss gf180mcu_fd_sc_mcu7t5v0__fillcap_4
XFILLER_54_247 vdd vss gf180mcu_fd_sc_mcu7t5v0__fill_1
X_05765_ _01662_ _01663_ _01661_ _01586_ _01668_ vdd vss gf180mcu_fd_sc_mcu7t5v0__aoi211_1
X_08553_ _03979_ _00466_ vdd vss gf180mcu_fd_sc_mcu7t5v0__clkbuf_1
XFILLER_93_1615 vdd vss gf180mcu_fd_sc_mcu7t5v0__fillcap_16
XFILLER_58_1757 vdd vss gf180mcu_fd_sc_mcu7t5v0__fill_2
XFILLER_74_1014 vdd vss gf180mcu_fd_sc_mcu7t5v0__fillcap_8
X_07504_ _02903_ _03151_ _03152_ vdd vss gf180mcu_fd_sc_mcu7t5v0__nand2_1
XFILLER_165_1142 vdd vss gf180mcu_fd_sc_mcu7t5v0__fill_2
X_08484_ _03942_ _00434_ vdd vss gf180mcu_fd_sc_mcu7t5v0__clkbuf_1
X_05696_ soc.cpu.AReg.data\[3\] soc.cpu.AReg.data\[2\] soc.cpu.AReg.data\[1\] _01603_
+ vdd vss gf180mcu_fd_sc_mcu7t5v0__nor3_1
XFILLER_1_1490 vdd vss gf180mcu_fd_sc_mcu7t5v0__fill_1
XFILLER_126_1104 vdd vss gf180mcu_fd_sc_mcu7t5v0__fill_1
XFILLER_145_1738 vdd vss gf180mcu_fd_sc_mcu7t5v0__fillcap_16
XFILLER_161_1006 vdd vss gf180mcu_fd_sc_mcu7t5v0__fillcap_16
X_07435_ _03021_ soc.spi_video_ram_1.write_fifo.fifo_mem\[20\]\[27\] _03083_ _03084_
+ vdd vss gf180mcu_fd_sc_mcu7t5v0__aoi21_1
XFILLER_52_1301 vdd vss gf180mcu_fd_sc_mcu7t5v0__fillcap_4
XFILLER_195_425 vdd vss gf180mcu_fd_sc_mcu7t5v0__fill_1
XFILLER_149_820 vdd vss gf180mcu_fd_sc_mcu7t5v0__fill_2
XFILLER_51_987 vdd vss gf180mcu_fd_sc_mcu7t5v0__fillcap_4
XFILLER_52_1312 vdd vss gf180mcu_fd_sc_mcu7t5v0__fill_1
XFILLER_52_1323 vdd vss gf180mcu_fd_sc_mcu7t5v0__fillcap_4
X_07366_ soc.spi_video_ram_1.output_buffer\[13\] _02676_ _03016_ vdd vss gf180mcu_fd_sc_mcu7t5v0__nand2_1
XFILLER_52_1356 vdd vss gf180mcu_fd_sc_mcu7t5v0__fill_2
XFILLER_182_108 vdd vss gf180mcu_fd_sc_mcu7t5v0__fillcap_64
X_06317_ soc.spi_video_ram_1.fifo_in_address\[10\] _02173_ vdd vss gf180mcu_fd_sc_mcu7t5v0__buf_2
X_09105_ _02165_ soc.spi_video_ram_1.write_fifo.fifo_mem\[20\]\[22\] _04258_ _04283_
+ vdd vss gf180mcu_fd_sc_mcu7t5v0__mux2_2
XFILLER_109_728 vdd vss gf180mcu_fd_sc_mcu7t5v0__fill_1
XFILLER_104_1457 vdd vss gf180mcu_fd_sc_mcu7t5v0__fill_1
XFILLER_148_385 vdd vss gf180mcu_fd_sc_mcu7t5v0__fillcap_4
X_07297_ _02937_ _02946_ _02947_ vdd vss gf180mcu_fd_sc_mcu7t5v0__nand2_1
Xcaravel_hack_soc_207 wbs_dat_o[15] vdd vss gf180mcu_fd_sc_mcu7t5v0__tiel
XFILLER_178_1525 vdd vss gf180mcu_fd_sc_mcu7t5v0__fill_1
Xcaravel_hack_soc_218 wbs_dat_o[26] vdd vss gf180mcu_fd_sc_mcu7t5v0__tiel
X_09036_ soc.spi_video_ram_1.write_fifo.fifo_mem\[21\]\[28\] _02353_ _04221_ _04242_
+ vdd vss gf180mcu_fd_sc_mcu7t5v0__mux2_2
X_06248_ _02126_ soc.spi_video_ram_1.write_fifo.fifo_mem\[18\]\[3\] _02120_ _02127_
+ vdd vss gf180mcu_fd_sc_mcu7t5v0__mux2_2
XFILLER_50_1091 vdd vss gf180mcu_fd_sc_mcu7t5v0__fill_2
XFILLER_164_889 vdd vss gf180mcu_fd_sc_mcu7t5v0__fillcap_4
XFILLER_102_1170 vdd vss gf180mcu_fd_sc_mcu7t5v0__fill_1
XFILLER_11_1064 vdd vss gf180mcu_fd_sc_mcu7t5v0__fill_1
XFILLER_123_208 vdd vss gf180mcu_fd_sc_mcu7t5v0__fillcap_4
XFILLER_191_1703 vdd vss gf180mcu_fd_sc_mcu7t5v0__fill_1
XFILLER_65_1706 vdd vss gf180mcu_fd_sc_mcu7t5v0__fillcap_32
XFILLER_104_400 vdd vss gf180mcu_fd_sc_mcu7t5v0__fill_2
XFILLER_117_783 vdd vss gf180mcu_fd_sc_mcu7t5v0__fill_1
XFILLER_176_1260 vdd vss gf180mcu_fd_sc_mcu7t5v0__fill_2
X_06179_ soc.video_generator_1.h_count\[4\] _01836_ soc.video_generator_1.h_count\[6\]
+ _02068_ vdd vss gf180mcu_fd_sc_mcu7t5v0__or3_1
XFILLER_132_720 vdd vss gf180mcu_fd_sc_mcu7t5v0__fillcap_4
XFILLER_2_527 vdd vss gf180mcu_fd_sc_mcu7t5v0__fillcap_4
XFILLER_172_1102 vdd vss gf180mcu_fd_sc_mcu7t5v0__fillcap_16
XFILLER_117_66 vdd vss gf180mcu_fd_sc_mcu7t5v0__fillcap_4
XFILLER_215_1419 vdd vss gf180mcu_fd_sc_mcu7t5v0__fill_1
XFILLER_191_1758 vdd vss gf180mcu_fd_sc_mcu7t5v0__fill_1
XFILLER_132_764 vdd vss gf180mcu_fd_sc_mcu7t5v0__fill_2
XFILLER_78_818 vdd vss gf180mcu_fd_sc_mcu7t5v0__fill_1
XFILLER_89_144 vdd vss gf180mcu_fd_sc_mcu7t5v0__fillcap_64
XFILLER_172_1157 vdd vss gf180mcu_fd_sc_mcu7t5v0__fillcap_8
XFILLER_132_775 vdd vss gf180mcu_fd_sc_mcu7t5v0__fillcap_4
XFILLER_63_1430 vdd vss gf180mcu_fd_sc_mcu7t5v0__fillcap_4
XFILLER_137_1277 vdd vss gf180mcu_fd_sc_mcu7t5v0__fill_1
X_09938_ soc.ram_encoder_0.input_bits_left\[3\] _04839_ _04841_ vdd vss gf180mcu_fd_sc_mcu7t5v0__or2_1
XFILLER_172_1179 vdd vss gf180mcu_fd_sc_mcu7t5v0__fill_2
XFILLER_58_520 vdd vss gf180mcu_fd_sc_mcu7t5v0__fillcap_4
XFILLER_63_1463 vdd vss gf180mcu_fd_sc_mcu7t5v0__fill_2
XFILLER_58_531 vdd vss gf180mcu_fd_sc_mcu7t5v0__fill_1
XFILLER_150_1433 vdd vss gf180mcu_fd_sc_mcu7t5v0__fillcap_16
XFILLER_246_632 vdd vss gf180mcu_fd_sc_mcu7t5v0__fillcap_32
XFILLER_115_1564 vdd vss gf180mcu_fd_sc_mcu7t5v0__fillcap_64
XFILLER_189_1632 vdd vss gf180mcu_fd_sc_mcu7t5v0__fill_1
X_09869_ soc.rom_encoder_0.request_data_out\[12\] _04742_ _04788_ vdd vss gf180mcu_fd_sc_mcu7t5v0__nand2_1
XFILLER_85_350 vdd vss gf180mcu_fd_sc_mcu7t5v0__fillcap_4
XTAP_3202 vdd vss gf180mcu_fd_sc_mcu7t5v0__filltie
XTAP_3213 vdd vss gf180mcu_fd_sc_mcu7t5v0__filltie
X_11900_ _00959_ clknet_leaf_296_wb_clk_i soc.spi_video_ram_1.write_fifo.fifo_mem\[3\]\[26\]
+ vdd vss gf180mcu_fd_sc_mcu7t5v0__dffq_1
XTAP_3224 vdd vss gf180mcu_fd_sc_mcu7t5v0__filltie
XTAP_3235 vdd vss gf180mcu_fd_sc_mcu7t5v0__filltie
XTAP_2501 vdd vss gf180mcu_fd_sc_mcu7t5v0__filltie
XFILLER_245_164 vdd vss gf180mcu_fd_sc_mcu7t5v0__fillcap_32
XTAP_3246 vdd vss gf180mcu_fd_sc_mcu7t5v0__filltie
XFILLER_218_389 vdd vss gf180mcu_fd_sc_mcu7t5v0__fill_1
XTAP_2512 vdd vss gf180mcu_fd_sc_mcu7t5v0__filltie
XTAP_3257 vdd vss gf180mcu_fd_sc_mcu7t5v0__filltie
XTAP_2523 vdd vss gf180mcu_fd_sc_mcu7t5v0__filltie
XTAP_3268 vdd vss gf180mcu_fd_sc_mcu7t5v0__filltie
X_11831_ _00890_ clknet_leaf_122_wb_clk_i soc.rom_encoder_0.input_buffer\[5\] vdd
+ vss gf180mcu_fd_sc_mcu7t5v0__dffq_1
XFILLER_61_707 vdd vss gf180mcu_fd_sc_mcu7t5v0__fill_2
XFILLER_73_567 vdd vss gf180mcu_fd_sc_mcu7t5v0__fill_1
XTAP_2534 vdd vss gf180mcu_fd_sc_mcu7t5v0__filltie
XTAP_3279 vdd vss gf180mcu_fd_sc_mcu7t5v0__filltie
XTAP_1800 vdd vss gf180mcu_fd_sc_mcu7t5v0__filltie
XTAP_2545 vdd vss gf180mcu_fd_sc_mcu7t5v0__filltie
XFILLER_165_2 vdd vss gf180mcu_fd_sc_mcu7t5v0__fillcap_64
XTAP_1811 vdd vss gf180mcu_fd_sc_mcu7t5v0__filltie
XTAP_2556 vdd vss gf180mcu_fd_sc_mcu7t5v0__filltie
XTAP_1822 vdd vss gf180mcu_fd_sc_mcu7t5v0__filltie
XTAP_2567 vdd vss gf180mcu_fd_sc_mcu7t5v0__filltie
XFILLER_183_1242 vdd vss gf180mcu_fd_sc_mcu7t5v0__fillcap_8
XTAP_1833 vdd vss gf180mcu_fd_sc_mcu7t5v0__filltie
XTAP_2578 vdd vss gf180mcu_fd_sc_mcu7t5v0__filltie
XFILLER_187_904 vdd vss gf180mcu_fd_sc_mcu7t5v0__fillcap_4
XTAP_1844 vdd vss gf180mcu_fd_sc_mcu7t5v0__filltie
XTAP_2589 vdd vss gf180mcu_fd_sc_mcu7t5v0__filltie
X_11762_ _00823_ clknet_leaf_70_wb_clk_i soc.spi_video_ram_1.state_sram_clk_counter\[5\]
+ vdd vss gf180mcu_fd_sc_mcu7t5v0__dffnq_1
XFILLER_242_882 vdd vss gf180mcu_fd_sc_mcu7t5v0__fillcap_4
XTAP_1855 vdd vss gf180mcu_fd_sc_mcu7t5v0__filltie
XTAP_1866 vdd vss gf180mcu_fd_sc_mcu7t5v0__filltie
XFILLER_201_212 vdd vss gf180mcu_fd_sc_mcu7t5v0__fill_1
XFILLER_158_105 vdd vss gf180mcu_fd_sc_mcu7t5v0__fill_1
X_10713_ _03443_ _05324_ _05337_ _01269_ vdd vss gf180mcu_fd_sc_mcu7t5v0__aoi21_1
XFILLER_13_144 vdd vss gf180mcu_fd_sc_mcu7t5v0__fillcap_64
XTAP_1877 vdd vss gf180mcu_fd_sc_mcu7t5v0__filltie
XTAP_1888 vdd vss gf180mcu_fd_sc_mcu7t5v0__filltie
XTAP_1899 vdd vss gf180mcu_fd_sc_mcu7t5v0__filltie
X_11693_ _00754_ clknet_leaf_130_wb_clk_i soc.spi_video_ram_1.fifo_in_data\[11\] vdd
+ vss gf180mcu_fd_sc_mcu7t5v0__dffq_1
XFILLER_74_1592 vdd vss gf180mcu_fd_sc_mcu7t5v0__fillcap_4
XFILLER_9_137 vdd vss gf180mcu_fd_sc_mcu7t5v0__fillcap_4
X_10644_ _05300_ _01237_ vdd vss gf180mcu_fd_sc_mcu7t5v0__clkbuf_1
X_10575_ _05259_ _05257_ _05260_ _01208_ vdd vss gf180mcu_fd_sc_mcu7t5v0__oai21_1
XFILLER_10_884 vdd vss gf180mcu_fd_sc_mcu7t5v0__fill_2
XFILLER_177_1013 vdd vss gf180mcu_fd_sc_mcu7t5v0__fill_1
X_12314_ _01342_ clknet_leaf_155_wb_clk_i soc.ram_encoder_0.data_out\[9\] vdd vss
+ gf180mcu_fd_sc_mcu7t5v0__dffq_1
XFILLER_202_1592 vdd vss gf180mcu_fd_sc_mcu7t5v0__fillcap_4
XFILLER_181_141 vdd vss gf180mcu_fd_sc_mcu7t5v0__fill_1
XFILLER_155_889 vdd vss gf180mcu_fd_sc_mcu7t5v0__fill_2
XFILLER_170_815 vdd vss gf180mcu_fd_sc_mcu7t5v0__fill_1
XFILLER_5_354 vdd vss gf180mcu_fd_sc_mcu7t5v0__fill_1
XFILLER_170_826 vdd vss gf180mcu_fd_sc_mcu7t5v0__fillcap_4
XFILLER_177_1079 vdd vss gf180mcu_fd_sc_mcu7t5v0__fill_2
X_12245_ _01273_ clknet_leaf_273_wb_clk_i soc.spi_video_ram_1.write_fifo.fifo_mem\[29\]\[27\]
+ vdd vss gf180mcu_fd_sc_mcu7t5v0__dffq_1
X_12176_ _01204_ clknet_leaf_85_wb_clk_i soc.boot_loading_offset\[3\] vdd vss gf180mcu_fd_sc_mcu7t5v0__dffq_1
XFILLER_9_1419 vdd vss gf180mcu_fd_sc_mcu7t5v0__fill_1
XFILLER_150_550 vdd vss gf180mcu_fd_sc_mcu7t5v0__fillcap_8
XFILLER_237_1699 vdd vss gf180mcu_fd_sc_mcu7t5v0__fillcap_4
XFILLER_155_1388 vdd vss gf180mcu_fd_sc_mcu7t5v0__fillcap_8