*SPEF "ieee 1481-1999"
*DESIGN "user_project_wrapper"
*DATE "11:11:11 Fri 11 11, 1111"
*VENDOR "OpenRCX"
*PROGRAM "Parallel Extraction"
*VERSION "1.0"
*DESIGN_FLOW "NAME_SCOPE LOCAL" "PIN_CAP NONE"
*DIVIDER /
*DELIMITER :
*BUS_DELIMITER []
*T_UNIT 1 NS
*C_UNIT 1 PF
*R_UNIT 1 OHM
*L_UNIT 1 HENRY

*NAME_MAP
*1 io_in[0]
*2 io_in[10]
*3 io_in[11]
*4 io_in[12]
*5 io_in[13]
*6 io_in[14]
*7 io_in[15]
*8 io_in[16]
*9 io_in[17]
*10 io_in[18]
*11 io_in[19]
*12 io_in[1]
*13 io_in[20]
*14 io_in[21]
*15 io_in[22]
*16 io_in[23]
*17 io_in[24]
*18 io_in[25]
*19 io_in[26]
*20 io_in[27]
*21 io_in[28]
*22 io_in[29]
*23 io_in[2]
*24 io_in[30]
*25 io_in[31]
*26 io_in[32]
*27 io_in[33]
*28 io_in[34]
*29 io_in[35]
*30 io_in[36]
*31 io_in[37]
*32 io_in[3]
*33 io_in[4]
*34 io_in[5]
*35 io_in[6]
*36 io_in[7]
*37 io_in[8]
*38 io_in[9]
*39 io_oeb[0]
*40 io_oeb[10]
*41 io_oeb[11]
*42 io_oeb[12]
*43 io_oeb[13]
*44 io_oeb[14]
*45 io_oeb[15]
*46 io_oeb[16]
*47 io_oeb[17]
*48 io_oeb[18]
*49 io_oeb[19]
*50 io_oeb[1]
*51 io_oeb[20]
*52 io_oeb[21]
*53 io_oeb[22]
*54 io_oeb[23]
*55 io_oeb[24]
*56 io_oeb[25]
*57 io_oeb[26]
*58 io_oeb[27]
*59 io_oeb[28]
*60 io_oeb[29]
*61 io_oeb[2]
*62 io_oeb[30]
*63 io_oeb[31]
*64 io_oeb[32]
*65 io_oeb[33]
*66 io_oeb[34]
*67 io_oeb[35]
*68 io_oeb[36]
*69 io_oeb[37]
*70 io_oeb[3]
*71 io_oeb[4]
*72 io_oeb[5]
*73 io_oeb[6]
*74 io_oeb[7]
*75 io_oeb[8]
*76 io_oeb[9]
*77 io_out[0]
*78 io_out[10]
*79 io_out[11]
*80 io_out[12]
*81 io_out[13]
*82 io_out[14]
*83 io_out[15]
*84 io_out[16]
*85 io_out[17]
*86 io_out[18]
*87 io_out[19]
*88 io_out[1]
*89 io_out[20]
*90 io_out[21]
*91 io_out[22]
*92 io_out[23]
*93 io_out[24]
*94 io_out[25]
*95 io_out[26]
*96 io_out[27]
*97 io_out[28]
*98 io_out[29]
*99 io_out[2]
*100 io_out[30]
*101 io_out[31]
*102 io_out[32]
*103 io_out[33]
*104 io_out[34]
*105 io_out[35]
*106 io_out[36]
*107 io_out[37]
*108 io_out[3]
*109 io_out[4]
*110 io_out[5]
*111 io_out[6]
*112 io_out[7]
*113 io_out[8]
*114 io_out[9]
*115 la_data_in[0]
*116 la_data_in[10]
*117 la_data_in[11]
*118 la_data_in[12]
*119 la_data_in[13]
*120 la_data_in[14]
*121 la_data_in[15]
*122 la_data_in[16]
*123 la_data_in[17]
*124 la_data_in[18]
*125 la_data_in[19]
*126 la_data_in[1]
*127 la_data_in[20]
*128 la_data_in[21]
*129 la_data_in[22]
*130 la_data_in[23]
*131 la_data_in[24]
*132 la_data_in[25]
*133 la_data_in[26]
*134 la_data_in[27]
*135 la_data_in[28]
*136 la_data_in[29]
*137 la_data_in[2]
*138 la_data_in[30]
*139 la_data_in[31]
*140 la_data_in[32]
*141 la_data_in[33]
*142 la_data_in[34]
*143 la_data_in[35]
*144 la_data_in[36]
*145 la_data_in[37]
*146 la_data_in[38]
*147 la_data_in[39]
*148 la_data_in[3]
*149 la_data_in[40]
*150 la_data_in[41]
*151 la_data_in[42]
*152 la_data_in[43]
*153 la_data_in[44]
*154 la_data_in[45]
*155 la_data_in[46]
*156 la_data_in[47]
*157 la_data_in[48]
*158 la_data_in[49]
*159 la_data_in[4]
*160 la_data_in[50]
*161 la_data_in[51]
*162 la_data_in[52]
*163 la_data_in[53]
*164 la_data_in[54]
*165 la_data_in[55]
*166 la_data_in[56]
*167 la_data_in[57]
*168 la_data_in[58]
*169 la_data_in[59]
*170 la_data_in[5]
*171 la_data_in[60]
*172 la_data_in[61]
*173 la_data_in[62]
*174 la_data_in[63]
*175 la_data_in[6]
*176 la_data_in[7]
*177 la_data_in[8]
*178 la_data_in[9]
*179 la_data_out[0]
*180 la_data_out[10]
*181 la_data_out[11]
*182 la_data_out[12]
*183 la_data_out[13]
*184 la_data_out[14]
*185 la_data_out[15]
*186 la_data_out[16]
*187 la_data_out[17]
*188 la_data_out[18]
*189 la_data_out[19]
*190 la_data_out[1]
*191 la_data_out[20]
*192 la_data_out[21]
*193 la_data_out[22]
*194 la_data_out[23]
*195 la_data_out[24]
*196 la_data_out[25]
*197 la_data_out[26]
*198 la_data_out[27]
*199 la_data_out[28]
*200 la_data_out[29]
*201 la_data_out[2]
*202 la_data_out[30]
*203 la_data_out[31]
*204 la_data_out[32]
*205 la_data_out[33]
*206 la_data_out[34]
*207 la_data_out[35]
*208 la_data_out[36]
*209 la_data_out[37]
*210 la_data_out[38]
*211 la_data_out[39]
*212 la_data_out[3]
*213 la_data_out[40]
*214 la_data_out[41]
*215 la_data_out[42]
*216 la_data_out[43]
*217 la_data_out[44]
*218 la_data_out[45]
*219 la_data_out[46]
*220 la_data_out[47]
*221 la_data_out[48]
*222 la_data_out[49]
*223 la_data_out[4]
*224 la_data_out[50]
*225 la_data_out[51]
*226 la_data_out[52]
*227 la_data_out[53]
*228 la_data_out[54]
*229 la_data_out[55]
*230 la_data_out[56]
*231 la_data_out[57]
*232 la_data_out[58]
*233 la_data_out[59]
*234 la_data_out[5]
*235 la_data_out[60]
*236 la_data_out[61]
*237 la_data_out[62]
*238 la_data_out[63]
*239 la_data_out[6]
*240 la_data_out[7]
*241 la_data_out[8]
*242 la_data_out[9]
*243 la_oenb[0]
*244 la_oenb[10]
*245 la_oenb[11]
*246 la_oenb[12]
*247 la_oenb[13]
*248 la_oenb[14]
*249 la_oenb[15]
*250 la_oenb[16]
*251 la_oenb[17]
*252 la_oenb[18]
*253 la_oenb[19]
*254 la_oenb[1]
*255 la_oenb[20]
*256 la_oenb[21]
*257 la_oenb[22]
*258 la_oenb[23]
*259 la_oenb[24]
*260 la_oenb[25]
*261 la_oenb[26]
*262 la_oenb[27]
*263 la_oenb[28]
*264 la_oenb[29]
*265 la_oenb[2]
*266 la_oenb[30]
*267 la_oenb[31]
*268 la_oenb[32]
*269 la_oenb[33]
*270 la_oenb[34]
*271 la_oenb[35]
*272 la_oenb[36]
*273 la_oenb[37]
*274 la_oenb[38]
*275 la_oenb[39]
*276 la_oenb[3]
*277 la_oenb[40]
*278 la_oenb[41]
*279 la_oenb[42]
*280 la_oenb[43]
*281 la_oenb[44]
*282 la_oenb[45]
*283 la_oenb[46]
*284 la_oenb[47]
*285 la_oenb[48]
*286 la_oenb[49]
*287 la_oenb[4]
*288 la_oenb[50]
*289 la_oenb[51]
*290 la_oenb[52]
*291 la_oenb[53]
*292 la_oenb[54]
*293 la_oenb[55]
*294 la_oenb[56]
*295 la_oenb[57]
*296 la_oenb[58]
*297 la_oenb[59]
*298 la_oenb[5]
*299 la_oenb[60]
*300 la_oenb[61]
*301 la_oenb[62]
*302 la_oenb[63]
*303 la_oenb[6]
*304 la_oenb[7]
*305 la_oenb[8]
*306 la_oenb[9]
*307 user_clock2
*308 user_irq[0]
*309 user_irq[1]
*310 user_irq[2]
*313 wb_clk_i
*314 wb_rst_i
*315 wbs_ack_o
*316 wbs_adr_i[0]
*317 wbs_adr_i[10]
*318 wbs_adr_i[11]
*319 wbs_adr_i[12]
*320 wbs_adr_i[13]
*321 wbs_adr_i[14]
*322 wbs_adr_i[15]
*323 wbs_adr_i[16]
*324 wbs_adr_i[17]
*325 wbs_adr_i[18]
*326 wbs_adr_i[19]
*327 wbs_adr_i[1]
*328 wbs_adr_i[20]
*329 wbs_adr_i[21]
*330 wbs_adr_i[22]
*331 wbs_adr_i[23]
*332 wbs_adr_i[24]
*333 wbs_adr_i[25]
*334 wbs_adr_i[26]
*335 wbs_adr_i[27]
*336 wbs_adr_i[28]
*337 wbs_adr_i[29]
*338 wbs_adr_i[2]
*339 wbs_adr_i[30]
*340 wbs_adr_i[31]
*341 wbs_adr_i[3]
*342 wbs_adr_i[4]
*343 wbs_adr_i[5]
*344 wbs_adr_i[6]
*345 wbs_adr_i[7]
*346 wbs_adr_i[8]
*347 wbs_adr_i[9]
*348 wbs_cyc_i
*349 wbs_dat_i[0]
*350 wbs_dat_i[10]
*351 wbs_dat_i[11]
*352 wbs_dat_i[12]
*353 wbs_dat_i[13]
*354 wbs_dat_i[14]
*355 wbs_dat_i[15]
*356 wbs_dat_i[16]
*357 wbs_dat_i[17]
*358 wbs_dat_i[18]
*359 wbs_dat_i[19]
*360 wbs_dat_i[1]
*361 wbs_dat_i[20]
*362 wbs_dat_i[21]
*363 wbs_dat_i[22]
*364 wbs_dat_i[23]
*365 wbs_dat_i[24]
*366 wbs_dat_i[25]
*367 wbs_dat_i[26]
*368 wbs_dat_i[27]
*369 wbs_dat_i[28]
*370 wbs_dat_i[29]
*371 wbs_dat_i[2]
*372 wbs_dat_i[30]
*373 wbs_dat_i[31]
*374 wbs_dat_i[3]
*375 wbs_dat_i[4]
*376 wbs_dat_i[5]
*377 wbs_dat_i[6]
*378 wbs_dat_i[7]
*379 wbs_dat_i[8]
*380 wbs_dat_i[9]
*381 wbs_dat_o[0]
*382 wbs_dat_o[10]
*383 wbs_dat_o[11]
*384 wbs_dat_o[12]
*385 wbs_dat_o[13]
*386 wbs_dat_o[14]
*387 wbs_dat_o[15]
*388 wbs_dat_o[16]
*389 wbs_dat_o[17]
*390 wbs_dat_o[18]
*391 wbs_dat_o[19]
*392 wbs_dat_o[1]
*393 wbs_dat_o[20]
*394 wbs_dat_o[21]
*395 wbs_dat_o[22]
*396 wbs_dat_o[23]
*397 wbs_dat_o[24]
*398 wbs_dat_o[25]
*399 wbs_dat_o[26]
*400 wbs_dat_o[27]
*401 wbs_dat_o[28]
*402 wbs_dat_o[29]
*403 wbs_dat_o[2]
*404 wbs_dat_o[30]
*405 wbs_dat_o[31]
*406 wbs_dat_o[3]
*407 wbs_dat_o[4]
*408 wbs_dat_o[5]
*409 wbs_dat_o[6]
*410 wbs_dat_o[7]
*411 wbs_dat_o[8]
*412 wbs_dat_o[9]
*413 wbs_sel_i[0]
*414 wbs_sel_i[1]
*415 wbs_sel_i[2]
*416 wbs_sel_i[3]
*417 wbs_stb_i
*418 wbs_we_i
*419 mprj

*PORTS
io_in[0] I
io_in[10] I
io_in[11] I
io_in[12] I
io_in[13] I
io_in[14] I
io_in[15] I
io_in[16] I
io_in[17] I
io_in[18] I
io_in[19] I
io_in[1] I
io_in[20] I
io_in[21] I
io_in[22] I
io_in[23] I
io_in[24] I
io_in[25] I
io_in[26] I
io_in[27] I
io_in[28] I
io_in[29] I
io_in[2] I
io_in[30] I
io_in[31] I
io_in[32] I
io_in[33] I
io_in[34] I
io_in[35] I
io_in[36] I
io_in[37] I
io_in[3] I
io_in[4] I
io_in[5] I
io_in[6] I
io_in[7] I
io_in[8] I
io_in[9] I
io_oeb[0] O
io_oeb[10] O
io_oeb[11] O
io_oeb[12] O
io_oeb[13] O
io_oeb[14] O
io_oeb[15] O
io_oeb[16] O
io_oeb[17] O
io_oeb[18] O
io_oeb[19] O
io_oeb[1] O
io_oeb[20] O
io_oeb[21] O
io_oeb[22] O
io_oeb[23] O
io_oeb[24] O
io_oeb[25] O
io_oeb[26] O
io_oeb[27] O
io_oeb[28] O
io_oeb[29] O
io_oeb[2] O
io_oeb[30] O
io_oeb[31] O
io_oeb[32] O
io_oeb[33] O
io_oeb[34] O
io_oeb[35] O
io_oeb[36] O
io_oeb[37] O
io_oeb[3] O
io_oeb[4] O
io_oeb[5] O
io_oeb[6] O
io_oeb[7] O
io_oeb[8] O
io_oeb[9] O
io_out[0] O
io_out[10] O
io_out[11] O
io_out[12] O
io_out[13] O
io_out[14] O
io_out[15] O
io_out[16] O
io_out[17] O
io_out[18] O
io_out[19] O
io_out[1] O
io_out[20] O
io_out[21] O
io_out[22] O
io_out[23] O
io_out[24] O
io_out[25] O
io_out[26] O
io_out[27] O
io_out[28] O
io_out[29] O
io_out[2] O
io_out[30] O
io_out[31] O
io_out[32] O
io_out[33] O
io_out[34] O
io_out[35] O
io_out[36] O
io_out[37] O
io_out[3] O
io_out[4] O
io_out[5] O
io_out[6] O
io_out[7] O
io_out[8] O
io_out[9] O
la_data_in[0] I
la_data_in[10] I
la_data_in[11] I
la_data_in[12] I
la_data_in[13] I
la_data_in[14] I
la_data_in[15] I
la_data_in[16] I
la_data_in[17] I
la_data_in[18] I
la_data_in[19] I
la_data_in[1] I
la_data_in[20] I
la_data_in[21] I
la_data_in[22] I
la_data_in[23] I
la_data_in[24] I
la_data_in[25] I
la_data_in[26] I
la_data_in[27] I
la_data_in[28] I
la_data_in[29] I
la_data_in[2] I
la_data_in[30] I
la_data_in[31] I
la_data_in[32] I
la_data_in[33] I
la_data_in[34] I
la_data_in[35] I
la_data_in[36] I
la_data_in[37] I
la_data_in[38] I
la_data_in[39] I
la_data_in[3] I
la_data_in[40] I
la_data_in[41] I
la_data_in[42] I
la_data_in[43] I
la_data_in[44] I
la_data_in[45] I
la_data_in[46] I
la_data_in[47] I
la_data_in[48] I
la_data_in[49] I
la_data_in[4] I
la_data_in[50] I
la_data_in[51] I
la_data_in[52] I
la_data_in[53] I
la_data_in[54] I
la_data_in[55] I
la_data_in[56] I
la_data_in[57] I
la_data_in[58] I
la_data_in[59] I
la_data_in[5] I
la_data_in[60] I
la_data_in[61] I
la_data_in[62] I
la_data_in[63] I
la_data_in[6] I
la_data_in[7] I
la_data_in[8] I
la_data_in[9] I
la_data_out[0] O
la_data_out[10] O
la_data_out[11] O
la_data_out[12] O
la_data_out[13] O
la_data_out[14] O
la_data_out[15] O
la_data_out[16] O
la_data_out[17] O
la_data_out[18] O
la_data_out[19] O
la_data_out[1] O
la_data_out[20] O
la_data_out[21] O
la_data_out[22] O
la_data_out[23] O
la_data_out[24] O
la_data_out[25] O
la_data_out[26] O
la_data_out[27] O
la_data_out[28] O
la_data_out[29] O
la_data_out[2] O
la_data_out[30] O
la_data_out[31] O
la_data_out[32] O
la_data_out[33] O
la_data_out[34] O
la_data_out[35] O
la_data_out[36] O
la_data_out[37] O
la_data_out[38] O
la_data_out[39] O
la_data_out[3] O
la_data_out[40] O
la_data_out[41] O
la_data_out[42] O
la_data_out[43] O
la_data_out[44] O
la_data_out[45] O
la_data_out[46] O
la_data_out[47] O
la_data_out[48] O
la_data_out[49] O
la_data_out[4] O
la_data_out[50] O
la_data_out[51] O
la_data_out[52] O
la_data_out[53] O
la_data_out[54] O
la_data_out[55] O
la_data_out[56] O
la_data_out[57] O
la_data_out[58] O
la_data_out[59] O
la_data_out[5] O
la_data_out[60] O
la_data_out[61] O
la_data_out[62] O
la_data_out[63] O
la_data_out[6] O
la_data_out[7] O
la_data_out[8] O
la_data_out[9] O
la_oenb[0] I
la_oenb[10] I
la_oenb[11] I
la_oenb[12] I
la_oenb[13] I
la_oenb[14] I
la_oenb[15] I
la_oenb[16] I
la_oenb[17] I
la_oenb[18] I
la_oenb[19] I
la_oenb[1] I
la_oenb[20] I
la_oenb[21] I
la_oenb[22] I
la_oenb[23] I
la_oenb[24] I
la_oenb[25] I
la_oenb[26] I
la_oenb[27] I
la_oenb[28] I
la_oenb[29] I
la_oenb[2] I
la_oenb[30] I
la_oenb[31] I
la_oenb[32] I
la_oenb[33] I
la_oenb[34] I
la_oenb[35] I
la_oenb[36] I
la_oenb[37] I
la_oenb[38] I
la_oenb[39] I
la_oenb[3] I
la_oenb[40] I
la_oenb[41] I
la_oenb[42] I
la_oenb[43] I
la_oenb[44] I
la_oenb[45] I
la_oenb[46] I
la_oenb[47] I
la_oenb[48] I
la_oenb[49] I
la_oenb[4] I
la_oenb[50] I
la_oenb[51] I
la_oenb[52] I
la_oenb[53] I
la_oenb[54] I
la_oenb[55] I
la_oenb[56] I
la_oenb[57] I
la_oenb[58] I
la_oenb[59] I
la_oenb[5] I
la_oenb[60] I
la_oenb[61] I
la_oenb[62] I
la_oenb[63] I
la_oenb[6] I
la_oenb[7] I
la_oenb[8] I
la_oenb[9] I
user_clock2 I
user_irq[0] O
user_irq[1] O
user_irq[2] O
wb_clk_i I
wb_rst_i I
wbs_ack_o O
wbs_adr_i[0] I
wbs_adr_i[10] I
wbs_adr_i[11] I
wbs_adr_i[12] I
wbs_adr_i[13] I
wbs_adr_i[14] I
wbs_adr_i[15] I
wbs_adr_i[16] I
wbs_adr_i[17] I
wbs_adr_i[18] I
wbs_adr_i[19] I
wbs_adr_i[1] I
wbs_adr_i[20] I
wbs_adr_i[21] I
wbs_adr_i[22] I
wbs_adr_i[23] I
wbs_adr_i[24] I
wbs_adr_i[25] I
wbs_adr_i[26] I
wbs_adr_i[27] I
wbs_adr_i[28] I
wbs_adr_i[29] I
wbs_adr_i[2] I
wbs_adr_i[30] I
wbs_adr_i[31] I
wbs_adr_i[3] I
wbs_adr_i[4] I
wbs_adr_i[5] I
wbs_adr_i[6] I
wbs_adr_i[7] I
wbs_adr_i[8] I
wbs_adr_i[9] I
wbs_cyc_i I
wbs_dat_i[0] I
wbs_dat_i[10] I
wbs_dat_i[11] I
wbs_dat_i[12] I
wbs_dat_i[13] I
wbs_dat_i[14] I
wbs_dat_i[15] I
wbs_dat_i[16] I
wbs_dat_i[17] I
wbs_dat_i[18] I
wbs_dat_i[19] I
wbs_dat_i[1] I
wbs_dat_i[20] I
wbs_dat_i[21] I
wbs_dat_i[22] I
wbs_dat_i[23] I
wbs_dat_i[24] I
wbs_dat_i[25] I
wbs_dat_i[26] I
wbs_dat_i[27] I
wbs_dat_i[28] I
wbs_dat_i[29] I
wbs_dat_i[2] I
wbs_dat_i[30] I
wbs_dat_i[31] I
wbs_dat_i[3] I
wbs_dat_i[4] I
wbs_dat_i[5] I
wbs_dat_i[6] I
wbs_dat_i[7] I
wbs_dat_i[8] I
wbs_dat_i[9] I
wbs_dat_o[0] O
wbs_dat_o[10] O
wbs_dat_o[11] O
wbs_dat_o[12] O
wbs_dat_o[13] O
wbs_dat_o[14] O
wbs_dat_o[15] O
wbs_dat_o[16] O
wbs_dat_o[17] O
wbs_dat_o[18] O
wbs_dat_o[19] O
wbs_dat_o[1] O
wbs_dat_o[20] O
wbs_dat_o[21] O
wbs_dat_o[22] O
wbs_dat_o[23] O
wbs_dat_o[24] O
wbs_dat_o[25] O
wbs_dat_o[26] O
wbs_dat_o[27] O
wbs_dat_o[28] O
wbs_dat_o[29] O
wbs_dat_o[2] O
wbs_dat_o[30] O
wbs_dat_o[31] O
wbs_dat_o[3] O
wbs_dat_o[4] O
wbs_dat_o[5] O
wbs_dat_o[6] O
wbs_dat_o[7] O
wbs_dat_o[8] O
wbs_dat_o[9] O
wbs_sel_i[0] I
wbs_sel_i[1] I
wbs_sel_i[2] I
wbs_sel_i[3] I
wbs_stb_i I
wbs_we_i I

*D_NET *1 0.592007
*CONN
*P io_in[0] I
*I *419:io_in[0] I *D caravel_hack_soc
*CAP
1 io_in[0] 0.00354882
2 *419:io_in[0] 0.00139814
3 *1:14 0.0340617
4 *1:13 0.0326636
5 *1:11 0.0610871
6 *1:10 0.0646359
7 *1:11 io_out[0] 0
8 *1:11 *77:14 0
9 *1:11 *125:16 0.0781849
10 *1:11 *276:16 0.0208367
11 *1:14 *139:19 0.0479632
12 *1:14 *158:11 0.243981
13 *1:14 *273:11 0.00364636
*RES
1 io_in[0] *1:10 36.675 
2 *1:10 *1:11 579.51 
3 *1:11 *1:13 4.5 
4 *1:13 *1:14 623.61 
5 *1:14 *419:io_in[0] 22.14 
*END

*D_NET *2 0.371226
*CONN
*P io_in[10] I
*I *419:io_in[10] I *D caravel_hack_soc
*CAP
1 io_in[10] 0.00103985
2 *419:io_in[10] 0.000666069
3 *2:14 0.00275073
4 *2:13 0.00208466
5 *2:11 0.0540357
6 *2:10 0.0540357
7 *2:8 0.00356129
8 *2:7 0.00460114
9 *2:8 *34:8 0.0459058
10 *2:8 *114:17 0.0250621
11 *2:11 *33:11 0.00577146
12 *2:11 *124:12 0.0412304
13 *2:11 *139:16 0.0161046
14 *2:11 *218:8 0.00253285
15 *2:11 *295:14 0
16 *2:11 *380:16 0
17 *2:11 *382:11 0
18 *2:14 *3:34 0.0489882
19 *2:14 *114:11 0.0580829
20 *2:14 *122:11 0
21 *2:14 *226:11 0.00303952
22 *2:14 *305:17 0.0017331
*RES
1 io_in[10] *2:7 12.645 
2 *2:7 *2:8 116.91 
3 *2:8 *2:10 4.5 
4 *2:10 *2:11 575.01 
5 *2:11 *2:13 4.5 
6 *2:13 *2:14 159.57 
7 *2:14 *419:io_in[10] 17.46 
*END

*D_NET *3 0.396438
*CONN
*P io_in[11] I
*I *419:io_in[11] I *D caravel_hack_soc
*CAP
1 io_in[11] 0.000363112
2 *419:io_in[11] 0.00069784
3 *3:34 0.00197575
4 *3:33 0.00234288
5 *3:23 0.0238399
6 *3:22 0.022775
7 *3:20 0.00965268
8 *3:18 0.0110059
9 *3:13 0.0422313
10 *3:11 0.0412412
11 *419:io_in[11] *183:44 2.73333e-05
12 *419:io_in[11] *242:68 1.3053e-05
13 *419:io_in[11] *266:54 8.32494e-06
14 *3:13 *419:wbs_dat_i[15] 0.00247326
15 *3:18 *129:19 0.000468484
16 *3:18 *200:13 0.00186486
17 *3:20 *129:19 0.0585659
18 *3:20 *200:13 0
19 *3:23 *187:14 0.00169202
20 *3:23 *193:11 0.0608767
21 *3:23 *208:20 0.0022064
22 *3:23 *248:20 0.00655942
23 *3:23 *252:20 0.00600885
24 *3:23 *255:21 0.0174404
25 *3:23 *266:21 0.000153283
26 *3:23 *298:16 0.000157808
27 *3:33 *87:11 0.00215843
28 *3:33 *109:10 0
29 *3:33 *242:106 5.45678e-05
30 *3:33 *242:109 0.000237236
31 *3:34 *226:11 0.0152852
32 *3:34 *305:17 0.0150724
33 *2:14 *3:34 0.0489882
*RES
1 io_in[11] *3:11 3.195 
2 *3:11 *3:13 258.57 
3 *3:13 *3:18 21.87 
4 *3:18 *3:20 148.86 
5 *3:20 *3:22 4.5 
6 *3:22 *3:23 320.49 
7 *3:23 *3:33 22.77 
8 *3:33 *3:34 125.55 
9 *3:34 *419:io_in[11] 17.64 
*END

*D_NET *4 0.111512
*CONN
*P io_in[12] I
*I *419:io_in[12] I *D caravel_hack_soc
*CAP
1 io_in[12] 0.000167227
2 *419:io_in[12] 0
3 *4:19 0.00133617
4 *4:18 0.00133617
5 *4:16 0.0117572
6 *4:15 0.0117572
7 *4:13 0.0279509
8 *4:11 0.0281182
9 *4:13 *419:la_data_in[42] 0
10 *4:13 *108:5 0
11 *4:16 *214:11 0
12 *4:19 *41:22 0.00682551
13 *4:19 *154:16 0.0222634
*RES
1 io_in[12] *4:11 2.115 
2 *4:11 *4:13 213.57 
3 *4:13 *4:15 4.5 
4 *4:15 *4:16 89.37 
5 *4:16 *4:18 4.5 
6 *4:18 *4:19 56.25 
7 *4:19 *419:io_in[12] 4.5 
*END

*D_NET *5 0.537223
*CONN
*P io_in[13] I
*I *419:io_in[13] I *D caravel_hack_soc
*CAP
1 io_in[13] 0.00297484
2 *419:io_in[13] 0.00141003
3 *5:14 0.0164323
4 *5:13 0.0150222
5 *5:11 0.00775182
6 *5:10 0.0107267
7 *419:io_in[13] *242:78 2.54705e-05
8 *419:io_in[13] *266:54 0.000156548
9 *5:10 *41:25 0.00927729
10 *5:10 *42:17 0.00105266
11 *5:11 *22:19 0.00394068
12 *5:11 *28:19 0.117919
13 *5:11 *39:8 0.000236232
14 *5:11 *67:8 0.0749555
15 *5:11 *73:8 0.0200735
16 *5:11 *112:8 0.0814116
17 *5:11 *174:12 0.100061
18 *5:14 *10:11 0.00708562
19 *5:14 *139:19 0.0667105
*RES
1 io_in[13] *5:10 46.215 
2 *5:10 *5:11 580.59 
3 *5:11 *5:13 4.5 
4 *5:13 *5:14 211.95 
5 *5:14 *419:io_in[13] 22.5 
*END

*D_NET *6 0.117951
*CONN
*P io_in[14] I
*I *419:io_in[14] I *D caravel_hack_soc
*CAP
1 io_in[14] 0.00416999
2 *419:io_in[14] 0.00318433
3 *6:11 0.0477379
4 *6:10 0.0487235
5 *419:io_in[14] *67:7 0
6 *6:11 io_oeb[13] 0
7 *6:11 *129:22 0.0107803
8 *6:11 *131:14 0
9 *6:11 *194:8 0.000353138
10 *6:11 *221:14 0
11 *6:11 *222:8 0.00300153
12 *6:11 *293:12 0
*RES
1 io_in[14] *6:10 39.375 
2 *6:10 *6:11 392.85 
3 *6:11 *419:io_in[14] 23.535 
*END

*D_NET *7 0.241775
*CONN
*P io_in[15] I
*I *419:io_in[15] I *D caravel_hack_soc
*CAP
1 io_in[15] 0.0027756
2 *419:io_in[15] 0.0341617
3 *7:13 0.0341617
4 *7:11 0.025709
5 *7:10 0.0284846
6 *419:io_in[15] io_out[9] 0.00161453
7 *7:11 *70:8 0.0182503
8 *7:11 *72:14 0.0966173
*RES
1 io_in[15] *7:10 31.275 
2 *7:10 *7:11 342.63 
3 *7:11 *7:13 4.5 
4 *7:13 *419:io_in[15] 254.745 
*END

*D_NET *8 0.381531
*CONN
*P io_in[16] I
*I *419:io_in[16] I *D caravel_hack_soc
*CAP
1 io_in[16] 0.00302396
2 *419:io_in[16] 0.00061212
3 *8:14 0.00534152
4 *8:13 0.0047294
5 *8:11 0.0537871
6 *8:10 0.056811
7 *8:10 *83:15 0.0120638
8 *8:11 la_data_out[50] 0
9 *8:14 *419:la_oenb[11] 0.000589157
10 *8:14 *19:11 0
11 *8:14 *43:8 0.0589508
12 *8:14 *51:8 0.071025
13 *8:14 *94:8 0.00135313
14 *8:14 *113:14 0.113244
*RES
1 io_in[16] *8:10 47.295 
2 *8:10 *8:11 409.41 
3 *8:11 *8:13 4.5 
4 *8:13 *8:14 332.73 
5 *8:14 *419:io_in[16] 8.325 
*END

*D_NET *9 0.0974572
*CONN
*P io_in[17] I
*I *419:io_in[17] I *D caravel_hack_soc
*CAP
1 io_in[17] 0.00221539
2 *419:io_in[17] 9.76714e-05
3 *9:17 0.0113534
4 *9:16 0.0112558
5 *9:14 0.0351052
6 *9:13 0.0373206
7 *9:13 *46:14 0
8 *9:13 *83:13 0.000109231
*RES
1 io_in[17] *9:13 30.645 
2 *9:13 *9:14 275.49 
3 *9:14 *9:16 4.5 
4 *9:16 *9:17 79.47 
5 *9:17 *419:io_in[17] 0.765 
*END

*D_NET *10 0.255747
*CONN
*P io_in[18] I
*I *419:io_in[18] I *D caravel_hack_soc
*CAP
1 io_in[18] 0.00141257
2 *419:io_in[18] 0.00136388
3 *10:11 0.0234663
4 *10:10 0.0221024
5 *10:8 0.0165897
6 *10:7 0.0180023
7 *10:8 *46:14 0.100234
8 *10:11 *139:19 0.0557385
9 *10:11 *158:11 0.00975224
10 *5:14 *10:11 0.00708562
*RES
1 io_in[18] *10:7 15.345 
2 *10:7 *10:8 251.01 
3 *10:8 *10:10 4.5 
4 *10:10 *10:11 260.73 
5 *10:11 *419:io_in[18] 22.14 
*END

*D_NET *11 0.129049
*CONN
*P io_in[19] I
*I *419:io_in[19] I *D caravel_hack_soc
*CAP
1 io_in[19] 0.000178873
2 *419:io_in[19] 0
3 *11:25 0.00347518
4 *11:16 0.0155387
5 *11:15 0.0120635
6 *11:13 0.00816486
7 *11:11 0.00834374
8 *11:16 *53:11 0.0735884
9 *11:16 *55:11 0
10 *11:25 *12:17 7.11759e-05
11 *11:25 *107:11 0.000381983
12 *11:25 *129:19 0.00088991
13 *11:25 *131:11 0.00627321
14 *11:25 *253:19 7.99399e-05
*RES
1 io_in[19] *11:11 2.115 
2 *11:11 *11:13 62.19 
3 *11:13 *11:15 4.5 
4 *11:15 *11:16 184.05 
5 *11:16 *11:25 46.89 
6 *11:25 *419:io_in[19] 4.5 
*END

*D_NET *12 0.344153
*CONN
*P io_in[1] I
*I *419:io_in[1] I *D caravel_hack_soc
*CAP
1 io_in[1] 0.00132917
2 *419:io_in[1] 0.000490222
3 *12:17 0.013088
4 *12:16 0.0125977
5 *12:14 0.102929
6 *12:13 0.102929
7 *12:11 0.0102584
8 *12:10 0.0115876
9 *12:11 *232:10 0.000174537
10 *12:17 *78:8 0.0715222
11 *12:17 *107:11 0.0045469
12 *12:17 *116:22 0.0022301
13 *12:17 *230:22 0.00496126
14 *12:17 *274:26 0.00213031
15 *12:17 *303:26 0.00330802
16 *11:25 *12:17 7.11759e-05
*RES
1 io_in[1] *12:10 19.575 
2 *12:10 *12:11 77.85 
3 *12:11 *12:13 4.5 
4 *12:13 *12:14 789.93 
5 *12:14 *12:16 4.5 
6 *12:16 *12:17 234.99 
7 *12:17 *419:io_in[1] 7.245 
*END

*D_NET *13 0.0668985
*CONN
*P io_in[20] I
*I *419:io_in[20] I *D caravel_hack_soc
*CAP
1 io_in[20] 0.00174251
2 *419:io_in[20] 0.00416831
3 *13:14 0.0234368
4 *13:13 0.0192684
5 *13:11 0.00747058
6 *13:10 0.00921309
7 *419:io_in[20] *200:9 0.000596529
8 *419:io_in[20] *219:13 0.000257527
9 *13:10 *87:14 0.000744727
10 *13:14 *367:16 0
11 *13:14 *378:8 0
*RES
1 io_in[20] *13:10 24.075 
2 *13:10 *13:11 56.43 
3 *13:11 *13:13 4.5 
4 *13:13 *13:14 150.03 
5 *13:14 *419:io_in[20] 32.985 
*END

*D_NET *14 0.123708
*CONN
*P io_in[21] I
*I *419:io_in[21] I *D caravel_hack_soc
*CAP
1 io_in[21] 0.00272468
2 *419:io_in[21] 0.00591666
3 *14:19 0.0107412
4 *14:14 0.0530853
5 *14:13 0.0509855
6 *14:13 *52:14 0.000254726
*RES
1 io_in[21] *14:13 34.785 
2 *14:13 *14:14 376.83 
3 *14:14 *14:19 41.67 
4 *14:19 *419:io_in[21] 38.925 
*END

*D_NET *15 0.0748303
*CONN
*P io_in[22] I
*I *419:io_in[22] I *D caravel_hack_soc
*CAP
1 io_in[22] 0.00213632
2 *419:io_in[22] 9.76714e-05
3 *15:11 0.0111538
4 *15:10 0.0110562
5 *15:8 0.024125
6 *15:7 0.0262613
*RES
1 io_in[22] *15:7 20.925 
2 *15:7 *15:8 188.19 
3 *15:8 *15:10 4.5 
4 *15:10 *15:11 76.77 
5 *15:11 *419:io_in[22] 0.765 
*END

*D_NET *16 0.295813
*CONN
*P io_in[23] I
*I *419:io_in[23] I *D caravel_hack_soc
*CAP
1 io_in[23] 0.000345489
2 *419:io_in[23] 0.00291771
3 *16:21 0.00316297
4 *16:16 0.0161942
5 *16:15 0.0159489
6 *16:13 0.0542901
7 *16:11 0.0546355
8 *419:io_in[23] *51:8 0.0159632
9 *419:io_in[23] *94:8 0.00123857
10 *419:io_in[23] *255:11 0
11 *16:16 *19:11 0.116359
12 *16:16 *89:8 0.00463587
13 *16:16 *90:8 0.00688826
14 *16:16 *138:16 0.00323328
15 *16:21 *223:11 0
*RES
1 io_in[23] *16:11 3.195 
2 *16:11 *16:13 416.07 
3 *16:13 *16:15 4.5 
4 *16:15 *16:16 294.21 
5 *16:16 *16:21 10.53 
6 *16:21 *419:io_in[23] 48.735 
*END

*D_NET *17 0.130678
*CONN
*P io_in[24] I
*I *419:io_in[24] I *D caravel_hack_soc
*CAP
1 io_in[24] 0.00117627
2 *419:io_in[24] 0.00300703
3 *17:11 0.053291
4 *17:10 0.050284
5 *17:8 0.00812151
6 *17:7 0.00929778
7 *17:11 *122:14 0.00370227
8 *17:11 *335:14 0.0017981
9 *17:11 *348:12 0
*RES
1 io_in[24] *17:7 13.365 
2 *17:7 *17:8 62.19 
3 *17:8 *17:10 4.5 
4 *17:10 *17:11 409.41 
5 *17:11 *419:io_in[24] 21.825 
*END

*D_NET *18 0.183824
*CONN
*P io_in[25] I
*I *419:io_in[25] I *D caravel_hack_soc
*CAP
1 io_in[25] 0.000125876
2 *419:io_in[25] 0.00175338
3 *18:13 0.051175
4 *18:11 0.0495475
5 *419:io_in[25] *115:21 0.000393382
6 *18:13 *95:8 0
7 *18:13 *358:16 0.0808284
8 *18:13 *395:8 0
*RES
1 io_in[25] *18:11 1.395 
2 *18:11 *18:13 430.11 
3 *18:13 *419:io_in[25] 15.165 
*END

*D_NET *19 0.517731
*CONN
*P io_in[26] I
*I *419:io_in[26] I *D caravel_hack_soc
*CAP
1 io_in[26] 0.000852903
2 *419:io_in[26] 0.00723764
3 *19:16 0.00974697
4 *19:11 0.0379565
5 *19:10 0.0354472
6 *19:8 0.0346589
7 *19:7 0.0355118
8 *19:11 *84:8 0.000360067
9 *19:11 *94:8 0.124551
10 *19:11 *113:14 0.00699536
11 *19:11 *138:16 0.0357568
12 *19:11 *204:11 0.00460751
13 *19:11 *260:12 0.0533097
14 *19:16 *85:11 0.0143795
15 *8:14 *19:11 0
16 *16:16 *19:11 0.116359
*RES
1 io_in[26] *19:7 10.665 
2 *19:7 *19:8 266.49 
3 *19:8 *19:10 4.5 
4 *19:10 *19:11 739.17 
5 *19:11 *19:16 45.81 
6 *19:16 *419:io_in[26] 47.205 
*END

*D_NET *20 0.132432
*CONN
*P io_in[27] I
*I *419:io_in[27] I *D caravel_hack_soc
*CAP
1 io_in[27] 0.00035683
2 *419:io_in[27] 0.00392048
3 *20:19 0.0398537
4 *20:18 0.0359333
5 *20:16 0.0152567
6 *20:15 0.0152567
7 *20:13 0.0107119
8 *20:11 0.0110688
9 *419:io_in[27] *242:86 7.34413e-05
10 *20:16 *342:13 0
*RES
1 io_in[27] *20:11 3.015 
2 *20:11 *20:13 81.81 
3 *20:13 *20:15 4.5 
4 *20:15 *20:16 117.27 
5 *20:16 *20:18 4.5 
6 *20:18 *20:19 271.44 
7 *20:19 *419:io_in[27] 35.19 
*END

*D_NET *21 0.207922
*CONN
*P io_in[28] I
*I *419:io_in[28] I *D caravel_hack_soc
*CAP
1 io_in[28] 0.000249598
2 *419:io_in[28] 0.00118751
3 *21:19 0.00257296
4 *21:18 0.00138545
5 *21:16 0.0264257
6 *21:15 0.0264257
7 *21:13 0.0367412
8 *21:11 0.0369908
9 *419:io_in[28] *40:23 3.75258e-05
10 *21:19 *25:15 0.00543154
11 *21:19 *60:8 0.0312401
12 *21:19 *399:8 0.0392336
*RES
1 io_in[28] *21:11 2.475 
2 *21:11 *21:13 281.61 
3 *21:13 *21:15 4.5 
4 *21:15 *21:16 200.97 
5 *21:16 *21:18 4.5 
6 *21:18 *21:19 108.63 
7 *21:19 *419:io_in[28] 10.845 
*END

*D_NET *22 0.472139
*CONN
*P io_in[29] I
*I *419:io_in[29] I *D caravel_hack_soc
*CAP
1 io_in[29] 0.000177869
2 *419:io_in[29] 0.0017992
3 *22:19 0.00553511
4 *22:18 0.00373591
5 *22:16 0.0351621
6 *22:15 0.0351621
7 *22:13 0.0342533
8 *22:11 0.0344312
9 *419:io_in[29] *106:10 0.000286234
10 *419:io_in[29] *143:19 0.00436156
11 *22:19 *25:15 0.0639068
12 *22:19 *60:8 0.00355185
13 *22:19 *67:8 0.117104
14 *22:19 *73:8 0.0671435
15 *22:19 *112:8 0.0486314
16 *22:19 *155:16 0.0068526
17 *22:19 *168:12 0.00610376
18 *5:11 *22:19 0.00394068
*RES
1 io_in[29] *22:11 1.935 
2 *22:11 *22:13 262.71 
3 *22:13 *22:15 4.5 
4 *22:15 *22:16 267.93 
5 *22:16 *22:18 4.5 
6 *22:18 *22:19 438.93 
7 *22:19 *419:io_in[29] 26.055 
*END

*D_NET *23 0.298209
*CONN
*P io_in[2] I
*I *419:io_in[2] I *D caravel_hack_soc
*CAP
1 io_in[2] 0.000167227
2 *419:io_in[2] 0.00180723
3 *23:16 0.0414658
4 *23:15 0.0396586
5 *23:13 0.078482
6 *23:11 0.0786492
7 *23:16 *111:11 0.022417
8 *23:16 *147:19 0.0226555
9 *23:16 *303:23 0.0129066
*RES
1 io_in[2] *23:11 2.115 
2 *23:11 *23:13 590.49 
3 *23:13 *23:15 4.5 
4 *23:15 *23:16 439.11 
5 *23:16 *419:io_in[2] 24.84 
*END

*D_NET *24 0.281239
*CONN
*P io_in[30] I
*I *419:io_in[30] I *D caravel_hack_soc
*CAP
1 io_in[30] 0.000113196
2 *419:io_in[30] 0.00132626
3 *24:18 0.00169948
4 *24:13 0.0513415
5 *24:11 0.0510815
6 *419:io_in[30] *419:la_data_in[8] 0
7 *419:io_in[30] *51:8 0.00298902
8 *419:io_in[30] *86:8 0.00603005
9 *419:io_in[30] *253:16 0.0156468
10 *24:13 *96:8 0.147876
11 *24:13 *210:14 0
12 *24:13 *212:10 0.00133065
13 *24:13 *235:14 0
14 *24:13 *380:16 0
15 *24:13 *382:11 0
16 *24:18 *419:la_data_in[59] 0.00169605
17 *24:18 *419:wbs_dat_i[16] 0.000108135
*RES
1 io_in[30] *24:11 1.395 
2 *24:11 *24:13 563.67 
3 *24:13 *24:18 13.59 
4 *24:18 *419:io_in[30] 48.375 
*END

*D_NET *25 0.304607
*CONN
*P io_in[31] I
*I *419:io_in[31] I *D caravel_hack_soc
*CAP
1 io_in[31] 0.00588874
2 *419:io_in[31] 0.00107959
3 *25:15 0.0205968
4 *25:14 0.0195172
5 *25:12 0.0525231
6 *25:11 0.0584118
7 *25:15 *28:19 0.00528046
8 *25:15 *60:8 0.0446191
9 *25:15 *67:8 0.0273517
10 *21:19 *25:15 0.00543154
11 *22:19 *25:15 0.0639068
*RES
1 io_in[31] *25:11 48.825 
2 *25:11 *25:12 403.11 
3 *25:12 *25:14 4.5 
4 *25:14 *25:15 379.71 
5 *25:15 *419:io_in[31] 10.485 
*END

*D_NET *26 0.413222
*CONN
*P io_in[32] I
*I *419:io_in[32] I *D caravel_hack_soc
*CAP
1 io_in[32] 0.00117627
2 *419:io_in[32] 0.00145074
3 *26:11 0.0162496
4 *26:10 0.0147989
5 *26:8 0.0170837
6 *26:7 0.0182599
7 *419:io_in[32] *410:7 0.00198637
8 *26:11 *68:8 0.220032
9 *26:11 *353:16 0.0304051
10 *26:11 *405:11 0.0917795
*RES
1 io_in[32] *26:7 13.365 
2 *26:7 *26:8 131.31 
3 *26:8 *26:10 4.5 
4 *26:10 *26:11 560.61 
5 *26:11 *419:io_in[32] 17.505 
*END

*D_NET *27 0.379587
*CONN
*P io_in[33] I
*I *419:io_in[33] I *D caravel_hack_soc
*CAP
1 io_in[33] 0.000242542
2 *419:io_in[33] 8.11079e-05
3 *27:19 0.00798251
4 *27:18 0.0079014
5 *27:16 0.0320843
6 *27:15 0.0320843
7 *27:13 0.0422572
8 *27:11 0.0424997
9 *27:16 *247:11 0.00709797
10 *27:16 *335:11 0.207356
*RES
1 io_in[33] *27:11 2.475 
2 *27:11 *27:13 319.59 
3 *27:13 *27:15 4.5 
4 *27:15 *27:16 529.29 
5 *27:16 *27:18 4.5 
6 *27:18 *27:19 57.51 
7 *27:19 *419:io_in[33] 9.63 
*END

*D_NET *28 0.439605
*CONN
*P io_in[34] I
*I *419:io_in[34] I *D caravel_hack_soc
*CAP
1 io_in[34] 0.000177869
2 *419:io_in[34] 0.00089179
3 *28:19 0.0282562
4 *28:18 0.0273644
5 *28:16 0.0791393
6 *28:15 0.0791393
7 *28:13 0.0071853
8 *28:11 0.00736316
9 *28:16 *414:13 0
10 *28:19 *39:8 0.0242329
11 *28:19 *67:8 0.0466958
12 *28:19 *92:13 0.00104502
13 *28:19 *411:8 0.00138182
14 *28:19 *412:8 0.0135332
15 *5:11 *28:19 0.117919
16 *25:15 *28:19 0.00528046
*RES
1 io_in[34] *28:11 1.935 
2 *28:11 *28:13 54.81 
3 *28:13 *28:15 4.5 
4 *28:15 *28:16 607.59 
5 *28:16 *28:18 4.5 
6 *28:18 *28:19 610.83 
7 *28:19 *419:io_in[34] 9.765 
*END

*D_NET *29 0.391652
*CONN
*P io_in[35] I
*I *419:io_in[35] I *D caravel_hack_soc
*CAP
1 io_in[35] 0.00305151
2 *419:io_in[35] 0.00159252
3 *29:19 0.0325022
4 *29:18 0.0309097
5 *29:16 0.0882178
6 *29:15 0.0912693
7 *29:16 wbs_ack_o 0
8 *29:19 *34:11 0.0274338
9 *29:19 *42:14 0.00176613
10 *29:19 *97:8 0.109229
11 *29:19 *317:12 0.00568024
12 *29:19 *399:8 0
*RES
1 io_in[35] *29:15 28.305 
2 *29:15 *29:16 678.15 
3 *29:16 *29:18 4.5 
4 *29:18 *29:19 422.91 
5 *29:19 *419:io_in[35] 12.825 
*END

*D_NET *30 0.230958
*CONN
*P io_in[36] I
*I *419:io_in[36] I *D caravel_hack_soc
*CAP
1 io_in[36] 0.00177706
2 *419:io_in[36] 8.11079e-05
3 *30:15 0.041716
4 *30:14 0.0416349
5 *30:12 0.0651174
6 *30:11 0.0651174
7 *30:9 0.00686869
8 *30:7 0.00864575
*RES
1 io_in[36] *30:7 13.185 
2 *30:7 *30:9 52.74 
3 *30:9 *30:11 4.5 
4 *30:11 *30:12 499.59 
5 *30:12 *30:14 4.5 