*SPEF "ieee 1481-1999"
*DESIGN "user_project_wrapper"
*DATE "11:11:11 Fri 11 11, 1111"
*VENDOR "OpenRCX"
*PROGRAM "Parallel Extraction"
*VERSION "1.0"
*DESIGN_FLOW "NAME_SCOPE LOCAL" "PIN_CAP NONE"
*DIVIDER /
*DELIMITER :
*BUS_DELIMITER []
*T_UNIT 1 NS
*C_UNIT 1 PF
*R_UNIT 1 OHM
*L_UNIT 1 HENRY

*NAME_MAP
*1 io_in[0]
*2 io_in[10]
*3 io_in[11]
*4 io_in[12]
*5 io_in[13]
*6 io_in[14]
*7 io_in[15]
*8 io_in[16]
*9 io_in[17]
*10 io_in[18]
*11 io_in[19]
*12 io_in[1]
*13 io_in[20]
*14 io_in[21]
*15 io_in[22]
*16 io_in[23]
*17 io_in[24]
*18 io_in[25]
*19 io_in[26]
*20 io_in[27]
*21 io_in[28]
*22 io_in[29]
*23 io_in[2]
*24 io_in[30]
*25 io_in[31]
*26 io_in[32]
*27 io_in[33]
*28 io_in[34]
*29 io_in[35]
*30 io_in[36]
*31 io_in[37]
*32 io_in[3]
*33 io_in[4]
*34 io_in[5]
*35 io_in[6]
*36 io_in[7]
*37 io_in[8]
*38 io_in[9]
*39 io_oeb[0]
*40 io_oeb[10]
*41 io_oeb[11]
*42 io_oeb[12]
*43 io_oeb[13]
*44 io_oeb[14]
*45 io_oeb[15]
*46 io_oeb[16]
*47 io_oeb[17]
*48 io_oeb[18]
*49 io_oeb[19]
*50 io_oeb[1]
*51 io_oeb[20]
*52 io_oeb[21]
*53 io_oeb[22]
*54 io_oeb[23]
*55 io_oeb[24]
*56 io_oeb[25]
*57 io_oeb[26]
*58 io_oeb[27]
*59 io_oeb[28]
*60 io_oeb[29]
*61 io_oeb[2]
*62 io_oeb[30]
*63 io_oeb[31]
*64 io_oeb[32]
*65 io_oeb[33]
*66 io_oeb[34]
*67 io_oeb[35]
*68 io_oeb[36]
*69 io_oeb[37]
*70 io_oeb[3]
*71 io_oeb[4]
*72 io_oeb[5]
*73 io_oeb[6]
*74 io_oeb[7]
*75 io_oeb[8]
*76 io_oeb[9]
*77 io_out[0]
*78 io_out[10]
*79 io_out[11]
*80 io_out[12]
*81 io_out[13]
*82 io_out[14]
*83 io_out[15]
*84 io_out[16]
*85 io_out[17]
*86 io_out[18]
*87 io_out[19]
*88 io_out[1]
*89 io_out[20]
*90 io_out[21]
*91 io_out[22]
*92 io_out[23]
*93 io_out[24]
*94 io_out[25]
*95 io_out[26]
*96 io_out[27]
*97 io_out[28]
*98 io_out[29]
*99 io_out[2]
*100 io_out[30]
*101 io_out[31]
*102 io_out[32]
*103 io_out[33]
*104 io_out[34]
*105 io_out[35]
*106 io_out[36]
*107 io_out[37]
*108 io_out[3]
*109 io_out[4]
*110 io_out[5]
*111 io_out[6]
*112 io_out[7]
*113 io_out[8]
*114 io_out[9]
*115 la_data_in[0]
*116 la_data_in[10]
*117 la_data_in[11]
*118 la_data_in[12]
*119 la_data_in[13]
*120 la_data_in[14]
*121 la_data_in[15]
*122 la_data_in[16]
*123 la_data_in[17]
*124 la_data_in[18]
*125 la_data_in[19]
*126 la_data_in[1]
*127 la_data_in[20]
*128 la_data_in[21]
*129 la_data_in[22]
*130 la_data_in[23]
*131 la_data_in[24]
*132 la_data_in[25]
*133 la_data_in[26]
*134 la_data_in[27]
*135 la_data_in[28]
*136 la_data_in[29]
*137 la_data_in[2]
*138 la_data_in[30]
*139 la_data_in[31]
*140 la_data_in[32]
*141 la_data_in[33]
*142 la_data_in[34]
*143 la_data_in[35]
*144 la_data_in[36]
*145 la_data_in[37]
*146 la_data_in[38]
*147 la_data_in[39]
*148 la_data_in[3]
*149 la_data_in[40]
*150 la_data_in[41]
*151 la_data_in[42]
*152 la_data_in[43]
*153 la_data_in[44]
*154 la_data_in[45]
*155 la_data_in[46]
*156 la_data_in[47]
*157 la_data_in[48]
*158 la_data_in[49]
*159 la_data_in[4]
*160 la_data_in[50]
*161 la_data_in[51]
*162 la_data_in[52]
*163 la_data_in[53]
*164 la_data_in[54]
*165 la_data_in[55]
*166 la_data_in[56]
*167 la_data_in[57]
*168 la_data_in[58]
*169 la_data_in[59]
*170 la_data_in[5]
*171 la_data_in[60]
*172 la_data_in[61]
*173 la_data_in[62]
*174 la_data_in[63]
*175 la_data_in[6]
*176 la_data_in[7]
*177 la_data_in[8]
*178 la_data_in[9]
*179 la_data_out[0]
*180 la_data_out[10]
*181 la_data_out[11]
*182 la_data_out[12]
*183 la_data_out[13]
*184 la_data_out[14]
*185 la_data_out[15]
*186 la_data_out[16]
*187 la_data_out[17]
*188 la_data_out[18]
*189 la_data_out[19]
*190 la_data_out[1]
*191 la_data_out[20]
*192 la_data_out[21]
*193 la_data_out[22]
*194 la_data_out[23]
*195 la_data_out[24]
*196 la_data_out[25]
*197 la_data_out[26]
*198 la_data_out[27]
*199 la_data_out[28]
*200 la_data_out[29]
*201 la_data_out[2]
*202 la_data_out[30]
*203 la_data_out[31]
*204 la_data_out[32]
*205 la_data_out[33]
*206 la_data_out[34]
*207 la_data_out[35]
*208 la_data_out[36]
*209 la_data_out[37]
*210 la_data_out[38]
*211 la_data_out[39]
*212 la_data_out[3]
*213 la_data_out[40]
*214 la_data_out[41]
*215 la_data_out[42]
*216 la_data_out[43]
*217 la_data_out[44]
*218 la_data_out[45]
*219 la_data_out[46]
*220 la_data_out[47]
*221 la_data_out[48]
*222 la_data_out[49]
*223 la_data_out[4]
*224 la_data_out[50]
*225 la_data_out[51]
*226 la_data_out[52]
*227 la_data_out[53]
*228 la_data_out[54]
*229 la_data_out[55]
*230 la_data_out[56]
*231 la_data_out[57]
*232 la_data_out[58]
*233 la_data_out[59]
*234 la_data_out[5]
*235 la_data_out[60]
*236 la_data_out[61]
*237 la_data_out[62]
*238 la_data_out[63]
*239 la_data_out[6]
*240 la_data_out[7]
*241 la_data_out[8]
*242 la_data_out[9]
*243 la_oenb[0]
*244 la_oenb[10]
*245 la_oenb[11]
*246 la_oenb[12]
*247 la_oenb[13]
*248 la_oenb[14]
*249 la_oenb[15]
*250 la_oenb[16]
*251 la_oenb[17]
*252 la_oenb[18]
*253 la_oenb[19]
*254 la_oenb[1]
*255 la_oenb[20]
*256 la_oenb[21]
*257 la_oenb[22]
*258 la_oenb[23]
*259 la_oenb[24]
*260 la_oenb[25]
*261 la_oenb[26]
*262 la_oenb[27]
*263 la_oenb[28]
*264 la_oenb[29]
*265 la_oenb[2]
*266 la_oenb[30]
*267 la_oenb[31]
*268 la_oenb[32]
*269 la_oenb[33]
*270 la_oenb[34]
*271 la_oenb[35]
*272 la_oenb[36]
*273 la_oenb[37]
*274 la_oenb[38]
*275 la_oenb[39]
*276 la_oenb[3]
*277 la_oenb[40]
*278 la_oenb[41]
*279 la_oenb[42]
*280 la_oenb[43]
*281 la_oenb[44]
*282 la_oenb[45]
*283 la_oenb[46]
*284 la_oenb[47]
*285 la_oenb[48]
*286 la_oenb[49]
*287 la_oenb[4]
*288 la_oenb[50]
*289 la_oenb[51]
*290 la_oenb[52]
*291 la_oenb[53]
*292 la_oenb[54]
*293 la_oenb[55]
*294 la_oenb[56]
*295 la_oenb[57]
*296 la_oenb[58]
*297 la_oenb[59]
*298 la_oenb[5]
*299 la_oenb[60]
*300 la_oenb[61]
*301 la_oenb[62]
*302 la_oenb[63]
*303 la_oenb[6]
*304 la_oenb[7]
*305 la_oenb[8]
*306 la_oenb[9]
*307 user_clock2
*308 user_irq[0]
*309 user_irq[1]
*310 user_irq[2]
*313 wb_clk_i
*314 wb_rst_i
*315 wbs_ack_o
*316 wbs_adr_i[0]
*317 wbs_adr_i[10]
*318 wbs_adr_i[11]
*319 wbs_adr_i[12]
*320 wbs_adr_i[13]
*321 wbs_adr_i[14]
*322 wbs_adr_i[15]
*323 wbs_adr_i[16]
*324 wbs_adr_i[17]
*325 wbs_adr_i[18]
*326 wbs_adr_i[19]
*327 wbs_adr_i[1]
*328 wbs_adr_i[20]
*329 wbs_adr_i[21]
*330 wbs_adr_i[22]
*331 wbs_adr_i[23]
*332 wbs_adr_i[24]
*333 wbs_adr_i[25]
*334 wbs_adr_i[26]
*335 wbs_adr_i[27]
*336 wbs_adr_i[28]
*337 wbs_adr_i[29]
*338 wbs_adr_i[2]
*339 wbs_adr_i[30]
*340 wbs_adr_i[31]
*341 wbs_adr_i[3]
*342 wbs_adr_i[4]
*343 wbs_adr_i[5]
*344 wbs_adr_i[6]
*345 wbs_adr_i[7]
*346 wbs_adr_i[8]
*347 wbs_adr_i[9]
*348 wbs_cyc_i
*349 wbs_dat_i[0]
*350 wbs_dat_i[10]
*351 wbs_dat_i[11]
*352 wbs_dat_i[12]
*353 wbs_dat_i[13]
*354 wbs_dat_i[14]
*355 wbs_dat_i[15]
*356 wbs_dat_i[16]
*357 wbs_dat_i[17]
*358 wbs_dat_i[18]
*359 wbs_dat_i[19]
*360 wbs_dat_i[1]
*361 wbs_dat_i[20]
*362 wbs_dat_i[21]
*363 wbs_dat_i[22]
*364 wbs_dat_i[23]
*365 wbs_dat_i[24]
*366 wbs_dat_i[25]
*367 wbs_dat_i[26]
*368 wbs_dat_i[27]
*369 wbs_dat_i[28]
*370 wbs_dat_i[29]
*371 wbs_dat_i[2]
*372 wbs_dat_i[30]
*373 wbs_dat_i[31]
*374 wbs_dat_i[3]
*375 wbs_dat_i[4]
*376 wbs_dat_i[5]
*377 wbs_dat_i[6]
*378 wbs_dat_i[7]
*379 wbs_dat_i[8]
*380 wbs_dat_i[9]
*381 wbs_dat_o[0]
*382 wbs_dat_o[10]
*383 wbs_dat_o[11]
*384 wbs_dat_o[12]
*385 wbs_dat_o[13]
*386 wbs_dat_o[14]
*387 wbs_dat_o[15]
*388 wbs_dat_o[16]
*389 wbs_dat_o[17]
*390 wbs_dat_o[18]
*391 wbs_dat_o[19]
*392 wbs_dat_o[1]
*393 wbs_dat_o[20]
*394 wbs_dat_o[21]
*395 wbs_dat_o[22]
*396 wbs_dat_o[23]
*397 wbs_dat_o[24]
*398 wbs_dat_o[25]
*399 wbs_dat_o[26]
*400 wbs_dat_o[27]
*401 wbs_dat_o[28]
*402 wbs_dat_o[29]
*403 wbs_dat_o[2]
*404 wbs_dat_o[30]
*405 wbs_dat_o[31]
*406 wbs_dat_o[3]
*407 wbs_dat_o[4]
*408 wbs_dat_o[5]
*409 wbs_dat_o[6]
*410 wbs_dat_o[7]
*411 wbs_dat_o[8]
*412 wbs_dat_o[9]
*413 wbs_sel_i[0]
*414 wbs_sel_i[1]
*415 wbs_sel_i[2]
*416 wbs_sel_i[3]
*417 wbs_stb_i
*418 wbs_we_i
*419 mprj

*PORTS
io_in[0] I
io_in[10] I
io_in[11] I
io_in[12] I
io_in[13] I
io_in[14] I
io_in[15] I
io_in[16] I
io_in[17] I
io_in[18] I
io_in[19] I
io_in[1] I
io_in[20] I
io_in[21] I
io_in[22] I
io_in[23] I
io_in[24] I
io_in[25] I
io_in[26] I
io_in[27] I
io_in[28] I
io_in[29] I
io_in[2] I
io_in[30] I
io_in[31] I
io_in[32] I
io_in[33] I
io_in[34] I
io_in[35] I
io_in[36] I
io_in[37] I
io_in[3] I
io_in[4] I
io_in[5] I
io_in[6] I
io_in[7] I
io_in[8] I
io_in[9] I
io_oeb[0] O
io_oeb[10] O
io_oeb[11] O
io_oeb[12] O
io_oeb[13] O
io_oeb[14] O
io_oeb[15] O
io_oeb[16] O
io_oeb[17] O
io_oeb[18] O
io_oeb[19] O
io_oeb[1] O
io_oeb[20] O
io_oeb[21] O
io_oeb[22] O
io_oeb[23] O
io_oeb[24] O
io_oeb[25] O
io_oeb[26] O
io_oeb[27] O
io_oeb[28] O
io_oeb[29] O
io_oeb[2] O
io_oeb[30] O
io_oeb[31] O
io_oeb[32] O
io_oeb[33] O
io_oeb[34] O
io_oeb[35] O
io_oeb[36] O
io_oeb[37] O
io_oeb[3] O
io_oeb[4] O
io_oeb[5] O
io_oeb[6] O
io_oeb[7] O
io_oeb[8] O
io_oeb[9] O
io_out[0] O
io_out[10] O
io_out[11] O
io_out[12] O
io_out[13] O
io_out[14] O
io_out[15] O
io_out[16] O
io_out[17] O
io_out[18] O
io_out[19] O
io_out[1] O
io_out[20] O
io_out[21] O
io_out[22] O
io_out[23] O
io_out[24] O
io_out[25] O
io_out[26] O
io_out[27] O
io_out[28] O
io_out[29] O
io_out[2] O
io_out[30] O
io_out[31] O
io_out[32] O
io_out[33] O
io_out[34] O
io_out[35] O
io_out[36] O
io_out[37] O
io_out[3] O
io_out[4] O
io_out[5] O
io_out[6] O
io_out[7] O
io_out[8] O
io_out[9] O
la_data_in[0] I
la_data_in[10] I
la_data_in[11] I
la_data_in[12] I
la_data_in[13] I
la_data_in[14] I
la_data_in[15] I
la_data_in[16] I
la_data_in[17] I
la_data_in[18] I
la_data_in[19] I
la_data_in[1] I
la_data_in[20] I
la_data_in[21] I
la_data_in[22] I
la_data_in[23] I
la_data_in[24] I
la_data_in[25] I
la_data_in[26] I
la_data_in[27] I
la_data_in[28] I
la_data_in[29] I
la_data_in[2] I
la_data_in[30] I
la_data_in[31] I
la_data_in[32] I
la_data_in[33] I
la_data_in[34] I
la_data_in[35] I
la_data_in[36] I
la_data_in[37] I
la_data_in[38] I
la_data_in[39] I
la_data_in[3] I
la_data_in[40] I
la_data_in[41] I
la_data_in[42] I
la_data_in[43] I
la_data_in[44] I
la_data_in[45] I
la_data_in[46] I
la_data_in[47] I
la_data_in[48] I
la_data_in[49] I
la_data_in[4] I
la_data_in[50] I
la_data_in[51] I
la_data_in[52] I
la_data_in[53] I
la_data_in[54] I
la_data_in[55] I
la_data_in[56] I
la_data_in[57] I
la_data_in[58] I
la_data_in[59] I
la_data_in[5] I
la_data_in[60] I
la_data_in[61] I
la_data_in[62] I
la_data_in[63] I
la_data_in[6] I
la_data_in[7] I
la_data_in[8] I
la_data_in[9] I
la_data_out[0] O
la_data_out[10] O
la_data_out[11] O
la_data_out[12] O
la_data_out[13] O
la_data_out[14] O
la_data_out[15] O
la_data_out[16] O
la_data_out[17] O
la_data_out[18] O
la_data_out[19] O
la_data_out[1] O
la_data_out[20] O
la_data_out[21] O
la_data_out[22] O
la_data_out[23] O
la_data_out[24] O
la_data_out[25] O
la_data_out[26] O
la_data_out[27] O
la_data_out[28] O
la_data_out[29] O
la_data_out[2] O
la_data_out[30] O
la_data_out[31] O
la_data_out[32] O
la_data_out[33] O
la_data_out[34] O
la_data_out[35] O
la_data_out[36] O
la_data_out[37] O
la_data_out[38] O
la_data_out[39] O
la_data_out[3] O
la_data_out[40] O
la_data_out[41] O
la_data_out[42] O
la_data_out[43] O
la_data_out[44] O
la_data_out[45] O
la_data_out[46] O
la_data_out[47] O
la_data_out[48] O
la_data_out[49] O
la_data_out[4] O
la_data_out[50] O
la_data_out[51] O
la_data_out[52] O
la_data_out[53] O
la_data_out[54] O
la_data_out[55] O
la_data_out[56] O
la_data_out[57] O
la_data_out[58] O
la_data_out[59] O
la_data_out[5] O
la_data_out[60] O
la_data_out[61] O
la_data_out[62] O
la_data_out[63] O
la_data_out[6] O
la_data_out[7] O
la_data_out[8] O
la_data_out[9] O
la_oenb[0] I
la_oenb[10] I
la_oenb[11] I
la_oenb[12] I
la_oenb[13] I
la_oenb[14] I
la_oenb[15] I
la_oenb[16] I
la_oenb[17] I
la_oenb[18] I
la_oenb[19] I
la_oenb[1] I
la_oenb[20] I
la_oenb[21] I
la_oenb[22] I
la_oenb[23] I
la_oenb[24] I
la_oenb[25] I
la_oenb[26] I
la_oenb[27] I
la_oenb[28] I
la_oenb[29] I
la_oenb[2] I
la_oenb[30] I
la_oenb[31] I
la_oenb[32] I
la_oenb[33] I
la_oenb[34] I
la_oenb[35] I
la_oenb[36] I
la_oenb[37] I
la_oenb[38] I
la_oenb[39] I
la_oenb[3] I
la_oenb[40] I
la_oenb[41] I
la_oenb[42] I
la_oenb[43] I
la_oenb[44] I
la_oenb[45] I
la_oenb[46] I
la_oenb[47] I
la_oenb[48] I
la_oenb[49] I
la_oenb[4] I
la_oenb[50] I
la_oenb[51] I
la_oenb[52] I
la_oenb[53] I
la_oenb[54] I
la_oenb[55] I
la_oenb[56] I
la_oenb[57] I
la_oenb[58] I
la_oenb[59] I
la_oenb[5] I
la_oenb[60] I
la_oenb[61] I
la_oenb[62] I
la_oenb[63] I
la_oenb[6] I
la_oenb[7] I
la_oenb[8] I
la_oenb[9] I
user_clock2 I
user_irq[0] O
user_irq[1] O
user_irq[2] O
wb_clk_i I
wb_rst_i I
wbs_ack_o O
wbs_adr_i[0] I
wbs_adr_i[10] I
wbs_adr_i[11] I
wbs_adr_i[12] I
wbs_adr_i[13] I
wbs_adr_i[14] I
wbs_adr_i[15] I
wbs_adr_i[16] I
wbs_adr_i[17] I
wbs_adr_i[18] I
wbs_adr_i[19] I
wbs_adr_i[1] I
wbs_adr_i[20] I
wbs_adr_i[21] I
wbs_adr_i[22] I
wbs_adr_i[23] I
wbs_adr_i[24] I
wbs_adr_i[25] I
wbs_adr_i[26] I
wbs_adr_i[27] I
wbs_adr_i[28] I
wbs_adr_i[29] I
wbs_adr_i[2] I
wbs_adr_i[30] I
wbs_adr_i[31] I
wbs_adr_i[3] I
wbs_adr_i[4] I
wbs_adr_i[5] I
wbs_adr_i[6] I
wbs_adr_i[7] I
wbs_adr_i[8] I
wbs_adr_i[9] I
wbs_cyc_i I
wbs_dat_i[0] I
wbs_dat_i[10] I
wbs_dat_i[11] I
wbs_dat_i[12] I
wbs_dat_i[13] I
wbs_dat_i[14] I
wbs_dat_i[15] I
wbs_dat_i[16] I
wbs_dat_i[17] I
wbs_dat_i[18] I
wbs_dat_i[19] I
wbs_dat_i[1] I
wbs_dat_i[20] I
wbs_dat_i[21] I
wbs_dat_i[22] I
wbs_dat_i[23] I
wbs_dat_i[24] I
wbs_dat_i[25] I
wbs_dat_i[26] I
wbs_dat_i[27] I
wbs_dat_i[28] I
wbs_dat_i[29] I
wbs_dat_i[2] I
wbs_dat_i[30] I
wbs_dat_i[31] I
wbs_dat_i[3] I
wbs_dat_i[4] I
wbs_dat_i[5] I
wbs_dat_i[6] I
wbs_dat_i[7] I
wbs_dat_i[8] I
wbs_dat_i[9] I
wbs_dat_o[0] O
wbs_dat_o[10] O
wbs_dat_o[11] O
wbs_dat_o[12] O
wbs_dat_o[13] O
wbs_dat_o[14] O
wbs_dat_o[15] O
wbs_dat_o[16] O
wbs_dat_o[17] O
wbs_dat_o[18] O
wbs_dat_o[19] O
wbs_dat_o[1] O
wbs_dat_o[20] O
wbs_dat_o[21] O
wbs_dat_o[22] O
wbs_dat_o[23] O
wbs_dat_o[24] O
wbs_dat_o[25] O
wbs_dat_o[26] O
wbs_dat_o[27] O
wbs_dat_o[28] O
wbs_dat_o[29] O
wbs_dat_o[2] O
wbs_dat_o[30] O
wbs_dat_o[31] O
wbs_dat_o[3] O
wbs_dat_o[4] O
wbs_dat_o[5] O
wbs_dat_o[6] O
wbs_dat_o[7] O
wbs_dat_o[8] O
wbs_dat_o[9] O
wbs_sel_i[0] I
wbs_sel_i[1] I
wbs_sel_i[2] I
wbs_sel_i[3] I
wbs_stb_i I
wbs_we_i I

*D_NET *1 0.516777
*CONN
*P io_in[0] I
*I *419:io_in[0] I *D caravel_hack_soc
*CAP
1 io_in[0] 0.00462078
2 *419:io_in[0] 0.00117813
3 *1:14 0.0266203
4 *1:13 0.0254421
5 *1:11 0.0770397
6 *1:10 0.0816605
7 *419:io_in[0] *419:io_in[13] 0.000247428
8 *1:14 *111:11 0.0764961
9 *1:14 *158:11 0.223472
*RES
1 io_in[0] *1:10 44.775 
2 *1:10 *1:11 579.51 
3 *1:11 *1:13 4.5 
4 *1:13 *1:14 571.23 
5 *1:14 *419:io_in[0] 22.14 
*END

*D_NET *2 0.305519
*CONN
*P io_in[10] I
*I *419:io_in[10] I *D caravel_hack_soc
*CAP
1 io_in[10] 0.00359874
2 *419:io_in[10] 0.000538175
3 *2:64 0.00175276
4 *2:63 0.00210597
5 *2:57 0.00142539
6 *2:54 0.000885441
7 *2:49 0.00669222
8 *2:48 0.00634078
9 *2:46 0.00158454
10 *2:39 0.00480807
11 *2:29 0.0454211
12 *2:28 0.0468169
13 *2:25 0.0102375
14 *2:22 0.00798679
15 *2:19 0.00644587
16 *2:11 0.00767593
17 *419:io_in[10] *210:10 0.000104703
18 *2:11 *99:11 0.0104245
19 *2:25 *38:13 0
20 *2:29 *419:la_data_in[40] 0.000186639
21 *2:29 *149:24 0
22 *2:29 *163:14 0
23 *2:29 *206:10 0.0021555
24 *2:29 *206:11 0
25 *2:29 *386:14 0.000418761
26 *2:39 *113:14 0
27 *2:39 *134:16 0.000521059
28 *2:39 *191:11 0.0116
29 *2:39 *386:14 2.36748e-05
30 *2:39 *386:16 0
31 *2:46 *51:7 0.000103335
32 *2:46 *51:8 0.00617607
33 *2:46 *85:7 0.000284369
34 *2:46 *85:8 0.000174537
35 *2:46 *103:7 0.00130195
36 *2:46 *303:16 0.0033803
37 *2:46 *366:14 0.00119808
38 *2:49 *8:14 0.0285204
39 *2:49 *84:8 0.00350594
40 *2:49 *242:14 0.000168222
41 *2:49 *248:18 0.000624056
42 *2:49 *248:20 0
43 *2:49 *305:18 0.000658933
44 *2:49 *390:10 1.59915e-05
45 *2:54 *276:11 0.00128049
46 *2:57 *16:22 0.000245146
47 *2:57 *49:8 0.0143829
48 *2:57 *375:22 0.00351773
49 *2:57 *397:10 0.00708563
50 *2:63 *419:la_oenb[13] 0.000846804
51 *2:63 *62:8 0
52 *2:63 *122:11 0.000594588
53 *2:63 *295:17 0.000323385
54 *2:64 *3:22 0.000435825
55 *2:64 *114:11 0.0325805
56 *2:64 *226:11 0.00869661
57 *2:64 *271:17 0.00966614
*RES
1 io_in[10] *2:11 49.365 
2 *2:11 *2:19 44.46 
3 *2:19 *2:22 22.23 
4 *2:22 *2:25 47.79 
5 *2:25 *2:28 39.51 
6 *2:28 *2:29 322.65 
7 *2:29 *2:39 49.05 
8 *2:39 *2:46 49.41 
9 *2:46 *2:48 4.5 
10 *2:48 *2:49 92.07 
11 *2:49 *2:54 12.51 
12 *2:54 *2:57 42.57 
13 *2:57 *2:63 18.72 
14 *2:63 *2:64 83.97 
15 *2:64 *419:io_in[10] 17.28 
*END

*D_NET *3 0.318674
*CONN
*P io_in[11] I
*I *419:io_in[11] I *D caravel_hack_soc
*CAP
1 io_in[11] 0.000363112
2 *419:io_in[11] 0.000813861
3 *3:22 0.011525
4 *3:21 0.0107111
5 *3:19 0.00464764
6 *3:18 0.00464764
7 *3:16 0.00598144
8 *3:13 0.0632554
9 *3:11 0.0576371
10 *419:io_in[11] *419:io_in[3] 6.67218e-05
11 *3:19 *14:16 0.0339086
12 *3:19 *41:20 0
13 *3:19 *150:16 0.0039093
14 *3:19 *274:16 0.0606976
15 *3:19 *368:14 0.0200198
16 *3:22 *41:11 0.0219704
17 *3:22 *81:11 0
18 *3:22 *114:11 0.000621907
19 *3:22 *221:13 0.000480478
20 *3:22 *230:13 0
21 *3:22 *271:17 0.000560936
22 *3:22 *275:17 0.0164197
23 *3:22 *305:23 0
24 *2:64 *3:22 0.000435825
*RES
1 io_in[11] *3:11 3.195 
2 *3:11 *3:13 359.37 
3 *3:13 *3:16 45.99 
4 *3:16 *3:18 4.5 
5 *3:18 *3:19 224.37 
6 *3:19 *3:21 4.5 
7 *3:21 *3:22 128.43 
8 *3:22 *419:io_in[11] 18 
*END

*D_NET *4 0.114536
*CONN
*P io_in[12] I
*I *419:io_in[12] I *D caravel_hack_soc
*CAP
1 io_in[12] 0.000167227
2 *419:io_in[12] 0.00192946
3 *4:21 0.00620685
4 *4:13 0.0542719
5 *4:11 0.0501617
6 *419:io_in[12] *419:wbs_dat_i[21] 0
7 *4:13 *53:13 0
8 *4:21 *112:8 0.000903532
9 *4:21 *384:13 0.000895822
*RES
1 io_in[12] *4:11 2.115 
2 *4:11 *4:13 391.77 
3 *4:13 *4:21 44.82 
4 *4:21 *419:io_in[12] 10.485 
*END

*D_NET *5 0.236088
*CONN
*P io_in[13] I
*I *419:io_in[13] I *D caravel_hack_soc
*CAP
1 io_in[13] 0.0755066
2 *419:io_in[13] 0.00151651
3 *5:8 0.0197183
4 *5:7 0.0182018
5 *5:5 0.0755066
6 *5:8 *87:11 0.035014
7 *5:8 *209:13 0.0103768
8 *419:io_in[0] *419:io_in[13] 0.000247428
*RES
1 io_in[13] *5:5 590.265 
2 *5:5 *5:7 4.5 
3 *5:7 *5:8 228.51 
4 *5:8 *419:io_in[13] 24.66 
*END

*D_NET *6 0.202321
*CONN
*P io_in[14] I
*I *419:io_in[14] I *D caravel_hack_soc
*CAP
1 io_in[14] 0.000674731
2 *419:io_in[14] 0.00508697
3 *6:11 0.0787666
4 *6:10 0.0736796
5 *6:8 0.0105888
6 *6:7 0.0112635
7 *419:io_in[14] *203:7 0.000269504
8 *6:8 *43:11 0.0202453
9 *6:8 *82:11 0.00174621
10 *6:11 *387:12 0
*RES
1 io_in[14] *6:7 8.685 
2 *6:7 *6:8 135.45 
3 *6:8 *6:10 4.5 
4 *6:10 *6:11 469.89 
5 *6:11 *419:io_in[14] 37.485 
*END

*D_NET *7 0.261554
*CONN
*P io_in[15] I
*I *419:io_in[15] I *D caravel_hack_soc
*CAP
1 io_in[15] 0.0029265
2 *419:io_in[15] 0.000587191
3 *7:14 0.0502354
4 *7:13 0.0496482
5 *7:11 0.0304067
6 *7:10 0.0333332
7 *7:11 *36:8 0.00638651
8 *7:11 *73:11 0.0647871
9 *7:11 *82:11 0.0149658
10 *7:14 *201:9 0.00827726
11 *7:14 *238:17 0
*RES
1 io_in[15] *7:10 32.535 
2 *7:10 *7:11 370.71 
3 *7:11 *7:13 4.5 
4 *7:13 *7:14 384.57 
5 *7:14 *419:io_in[15] 11.295 
*END

*D_NET *8 0.318191
*CONN
*P io_in[16] I
*I *419:io_in[16] I *D caravel_hack_soc
*CAP
1 io_in[16] 0.00318579
2 *419:io_in[16] 0.000151973
3 *8:14 0.0257894
4 *8:13 0.0256374
5 *8:11 0.053423
6 *8:10 0.0566088
7 *419:io_in[16] *419:la_oenb[1] 2.94529e-05
8 *8:10 *83:17 0.0131573
9 *8:14 *419:wbs_adr_i[8] 0.00153767
10 *8:14 *84:8 0.0967166
11 *8:14 *85:16 0
12 *8:14 *131:22 0.00947686
13 *8:14 *195:19 0.00273984
14 *8:14 *252:18 0.00050974
15 *8:14 *252:20 0
16 *8:14 *253:18 0.000664439
17 *8:14 *390:10 4.24351e-05
18 *2:49 *8:14 0.0285204
*RES
1 io_in[16] *8:10 49.995 
2 *8:10 *8:11 406.71 
3 *8:11 *8:13 4.5 
4 *8:13 *8:14 367.83 
5 *8:14 *419:io_in[16] 5.625 
*END

*D_NET *9 0.139015
*CONN
*P io_in[17] I
*I *419:io_in[17] I *D caravel_hack_soc
*CAP
1 io_in[17] 0.00135201
2 *419:io_in[17] 0.00251771
3 *9:17 0.01576
4 *9:16 0.0132423
5 *9:14 0.0390888
6 *9:13 0.0390888
7 *9:11 0.0129438
8 *9:10 0.0142958
9 *419:io_in[17] *419:io_in[35] 0.000471105
10 *419:io_in[17] *400:13 0
11 *9:10 *83:17 0.000254726
*RES
1 io_in[17] *9:10 19.935 
2 *9:10 *9:11 99.45 
3 *9:11 *9:13 4.5 
4 *9:13 *9:14 305.91 
5 *9:14 *9:16 4.5 
6 *9:16 *9:17 98.64 
7 *9:17 *419:io_in[17] 17.055 
*END

*D_NET *10 0.183274
*CONN
*P io_in[18] I
*I *419:io_in[18] I *D caravel_hack_soc
*CAP
1 io_in[18] 0.00143555
2 *419:io_in[18] 0.00206049
3 *10:11 0.0381692
4 *10:10 0.0361087
5 *10:8 0.0328205
6 *10:7 0.034256
7 *10:11 *121:19 0.0189986
8 *10:11 *308:11 0.0194248
*RES
1 io_in[18] *10:7 15.525 
2 *10:7 *10:8 256.41 
3 *10:8 *10:10 4.5 
4 *10:10 *10:11 317.79 
5 *10:11 *419:io_in[18] 27.54 
*END

*D_NET *11 0.0847283
*CONN
*P io_in[19] I
*I *419:io_in[19] I *D caravel_hack_soc
*CAP
1 io_in[19] 0.000178873
2 *419:io_in[19] 0
3 *11:23 0.00552843
4 *11:16 0.0106731
5 *11:15 0.00514464
6 *11:13 0.0242824
7 *11:11 0.0244613
8 *11:16 *48:14 0.0140947
9 *11:23 *419:wbs_adr_i[29] 0
10 *11:23 *116:19 4.56227e-05
11 *11:23 *127:19 0.000111701
12 *11:23 *384:10 0.000207564
*RES
1 io_in[19] *11:11 2.115 
2 *11:11 *11:13 186.39 
3 *11:13 *11:15 4.5 
4 *11:15 *11:16 56.79 
5 *11:16 *11:23 49.14 
6 *11:23 *419:io_in[19] 4.5 
*END

*D_NET *12 0.755151
*CONN
*P io_in[1] I
*I *419:io_in[1] I *D caravel_hack_soc
*CAP
1 io_in[1] 0.000509694
2 *419:io_in[1] 0.00188479
3 *12:11 0.0190095
4 *12:10 0.0171247
5 *12:8 0.0020553
6 *12:7 0.002565
7 *12:8 *39:11 0.2632
8 *12:8 *43:11 0.0808757
9 *12:8 *71:17 0.0283723
10 *12:8 *310:13 0.11951
11 *12:11 *39:8 0.0174598
12 *12:11 *112:8 0.07246
13 *12:11 *230:14 0.130125
*RES
1 io_in[1] *12:7 8.505 
2 *12:7 *12:8 670.23 
3 *12:8 *12:10 4.5 
4 *12:10 *12:11 421.29 
5 *12:11 *419:io_in[1] 14.625 
*END

*D_NET *13 0.0807717
*CONN
*P io_in[20] I
*I *419:io_in[20] I *D caravel_hack_soc
*CAP
1 io_in[20] 0.0106037
2 *419:io_in[20] 0.00249204
3 *13:11 0.0193495
4 *13:10 0.0168574
5 *13:8 0.0104327
6 *13:7 0.0104327
7 *13:5 0.0106037
*RES
1 io_in[20] *13:5 81.225 
2 *13:5 *13:7 4.5 
3 *13:7 *13:8 81.09 
4 *13:8 *13:10 4.5 
5 *13:10 *13:11 125.64 
6 *13:11 *419:io_in[20] 15.345 
*END

*D_NET *14 0.142363
*CONN
*P io_in[21] I
*I *419:io_in[21] I *D caravel_hack_soc
*CAP
1 io_in[21] 0.000302197
2 *419:io_in[21] 0.00275708
3 *14:16 0.0227602
4 *14:15 0.0200031
5 *14:13 0.0268697
6 *14:11 0.0271719
7 *419:io_in[21] *419:la_data_in[10] 0.000546938
8 *14:16 *41:20 0
9 *14:16 *101:14 0.000376744
10 *14:16 *368:14 0.00766607
11 *3:19 *14:16 0.0339086
*RES
1 io_in[21] *14:11 2.655 
2 *14:11 *14:13 205.47 
3 *14:13 *14:15 4.5 
4 *14:15 *14:16 259.29 
5 *14:16 *419:io_in[21] 22.275 
*END

*D_NET *15 0.122058
*CONN
*P io_in[22] I
*I *419:io_in[22] I *D caravel_hack_soc
*CAP
1 io_in[22] 0.00483808
2 *419:io_in[22] 0.00243625
3 *15:12 0.0159433
4 *15:11 0.013507
5 *15:9 0.022459
6 *15:7 0.0272971
7 *15:12 *67:8 0.00203585
8 *15:12 *71:14 0.00344826
9 *15:12 *101:14 0
10 *15:12 *122:14 0.00194821
11 *15:12 *357:14 0.0281445
12 *15:12 *395:8 0
*RES
1 io_in[22] *15:7 37.305 
2 *15:7 *15:9 171.54 
3 *15:9 *15:11 4.5 
4 *15:11 *15:12 186.57 
5 *15:12 *419:io_in[22] 18.225 
*END

*D_NET *16 0.213017
*CONN
*P io_in[23] I
*I *419:io_in[23] I *D caravel_hack_soc
*CAP
1 io_in[23] 0.000345489
2 *419:io_in[23] 0.000455401
3 *16:22 0.00785855
4 *16:21 0.00763944
5 *16:16 0.0279179
6 *16:15 0.0276816
7 *16:13 0.0544317
8 *16:11 0.0547772
9 *419:io_in[23] *419:la_oenb[12] 0.00060618
10 *16:13 *17:16 0
11 *16:16 *90:8 0.00348923
12 *16:16 *391:8 0
13 *16:21 *56:11 0
14 *16:22 *49:8 0.0105757
15 *16:22 *51:14 0
16 *16:22 *114:14 0.0113991
17 *16:22 *134:18 0
18 *16:22 *375:22 0.0055944
19 *2:57 *16:22 0.000245146
*RES
1 io_in[23] *16:11 3.195 
2 *16:11 *16:13 416.07 
3 *16:13 *16:15 4.5 
4 *16:15 *16:16 221.49 
5 *16:16 *16:21 10.71 
6 *16:21 *16:22 95.85 
7 *16:22 *419:io_in[23] 8.505 
*END

*D_NET *17 0.173837
*CONN
*P io_in[24] I
*I *419:io_in[24] I *D caravel_hack_soc
*CAP
1 io_in[24] 0.000201168
2 *419:io_in[24] 0.00276741
3 *17:22 0.0195238
4 *17:21 0.0167564
5 *17:19 0.0450512
6 *17:18 0.0450512
7 *17:16 0.00865695
8 *17:15 0.00865695
9 *17:13 0.0133459
10 *17:11 0.013547
11 *419:io_in[24] *419:la_data_in[45] 0
12 *419:io_in[24] *419:wbs_adr_i[24] 7.3405e-05
13 *419:io_in[24] *395:8 0.00020563
14 *17:19 *18:13 0
15 *16:13 *17:16 0
*RES
1 io_in[24] *17:11 1.935 
2 *17:11 *17:13 84.51 
3 *17:13 *17:15 4.5 
4 *17:15 *17:16 66.33 
5 *17:16 *17:18 4.5 
6 *17:18 *17:19 314.73 
7 *17:19 *17:21 4.5 
8 *17:21 *17:22 125.64 
9 *17:22 *419:io_in[24] 17.055 
*END

*D_NET *18 0.16841
*CONN
*P io_in[25] I
*I *419:io_in[25] I *D caravel_hack_soc
*CAP
1 io_in[25] 0.000125876
2 *419:io_in[25] 0.0012006
3 *18:16 0.0191029
4 *18:15 0.0179023
5 *18:13 0.0640876
6 *18:11 0.0642135
7 *419:io_in[25] *34:15 0.00111195
8 *419:io_in[25] *209:14 0.000504799
9 *419:io_in[25] *214:11 0.000136677
10 *18:16 *419:io_in[31] 2.35125e-05
11 *18:16 *214:11 0
12 *17:19 *18:13 0
*RES
1 io_in[25] *18:11 1.395 
2 *18:11 *18:13 405.81 
3 *18:13 *18:15 4.5 
4 *18:15 *18:16 132.21 
5 *18:16 *419:io_in[25] 19.035 
*END

*D_NET *19 0.227276
*CONN
*P io_in[26] I
*I *419:io_in[26] I *D caravel_hack_soc
*CAP
1 io_in[26] 0.00177706
2 *419:io_in[26] 0.0015776
3 *19:12 0.0302489
4 *19:11 0.0286713
5 *19:9 0.072653
6 *19:7 0.0744301
7 *19:12 *31:16 0.0042196
8 *19:12 *336:19 0.0136987
*RES
1 io_in[26] *19:7 13.185 
2 *19:7 *19:9 567.18 
3 *19:9 *19:11 4.5 
4 *19:11 *19:12 243.63 
5 *19:12 *419:io_in[26] 14.985 
*END

*D_NET *20 0.139706
*CONN
*P io_in[27] I
*I *419:io_in[27] I *D caravel_hack_soc
*CAP
1 io_in[27] 0.000538458
2 *419:io_in[27] 7.03817e-05
3 *20:11 0.0489692
4 *20:10 0.0488988
5 *20:8 0.019502
6 *20:7 0.0200405
7 *419:io_in[27] *419:wbs_dat_i[20] 2.33488e-05
8 *20:11 *361:14 0.00166332
*RES
1 io_in[27] *20:7 7.965 
2 *20:7 *20:8 149.85 
3 *20:8 *20:10 4.5 
4 *20:10 *20:11 373.59 
5 *20:11 *419:io_in[27] 9.63 
*END

*D_NET *21 0.228454
*CONN
*P io_in[28] I
*I *419:io_in[28] I *D caravel_hack_soc
*CAP
1 io_in[28] 0.00148238
2 *419:io_in[28] 0.00130538
3 *21:11 0.0274
4 *21:10 0.0260946
5 *21:8 0.00465285
6 *21:7 0.00613523
7 *21:8 *67:11 0.0278975
8 *21:11 *25:15 0.123911
9 *21:11 *34:15 0.00395167
10 *21:11 *411:8 0
11 *21:11 *412:8 0.00562332
*RES
1 io_in[28] *21:7 13.545 
2 *21:7 *21:8 71.01 
3 *21:8 *21:10 4.5 
4 *21:10 *21:11 375.75 
5 *21:11 *419:io_in[28] 11.745 
*END

*D_NET *22 0.331653
*CONN
*P io_in[29] I
*I *419:io_in[29] I *D caravel_hack_soc
*CAP
1 io_in[29] 0.000225569
2 *419:io_in[29] 0.00170613
3 *22:19 0.00569871
4 *22:18 0.00399257
5 *22:16 0.018684
6 *22:15 0.018684
7 *22:13 0.0341583
8 *22:11 0.0343839
9 *419:io_in[29] *80:9 0.000323286
10 *419:io_in[29] *106:10 0.00451683
11 *22:19 *25:15 0.0188986
12 *22:19 *38:19 0.0132051
13 *22:19 *60:8 0.000698553
14 *22:19 *153:18 0.00531561
15 *22:19 *209:14 0.0824898
16 *22:19 *367:16 0.0886719
*RES
1 io_in[29] *22:11 1.935 
2 *22:11 *22:13 262.71 
3 *22:13 *22:15 4.5 
4 *22:15 *22:16 141.21 
5 *22:16 *22:18 4.5 
6 *22:18 *22:19 312.03 
7 *22:19 *419:io_in[29] 26.235 
*END

*D_NET *23 0.393946
*CONN
*P io_in[2] I
*I *419:io_in[2] I *D caravel_hack_soc
*CAP
1 io_in[2] 0.000167227
2 *419:io_in[2] 0.00164112
3 *23:16 0.0265912
4 *23:15 0.02495
5 *23:13 0.0781991
6 *23:11 0.0783663
7 *419:io_in[2] *54:7 2.33488e-05
8 *419:io_in[2] *54:8 0.000282152
9 *23:13 *184:34 0.00226035
10 *23:16 *87:11 0.0079167
11 *23:16 *128:19 0.166286
12 *23:16 *281:19 0.007262
*RES
1 io_in[2] *23:11 2.115 
2 *23:11 *23:13 590.49 
3 *23:13 *23:15 4.5 
4 *23:15 *23:16 425.07 
5 *23:16 *419:io_in[2] 24.84 
*END

*D_NET *24 0.220593
*CONN
*P io_in[30] I
*I *419:io_in[30] I *D caravel_hack_soc
*CAP
1 io_in[30] 0.00271633
2 *419:io_in[30] 0.00125223
3 *24:11 0.0423535
4 *24:10 0.0438176
5 *419:io_in[30] *419:wbs_dat_i[25] 0.000106605
6 *419:io_in[30] *177:17 3.76003e-05
7 *419:io_in[30] *252:13 0.00183117
8 *24:10 *314:13 0.0015111
9 *24:11 *26:19 0.00311881
10 *24:11 *57:12 0.0886717
11 *24:11 *82:8 0.0234541
12 *24:11 *346:16 0.011722
13 *24:11 *374:16 0
*RES
1 io_in[30] *24:10 31.095 
2 *24:10 *24:11 494.01 
3 *24:11 *419:io_in[30] 16.605 
*END

*D_NET *25 0.2845
*CONN
*P io_in[31] I
*I *419:io_in[31] I *D caravel_hack_soc
*CAP
1 io_in[31] 0.00181137
2 *419:io_in[31] 0.0012457
3 *25:15 0.0151808
4 *25:14 0.0139351
5 *25:12 0.0360901
6 *25:11 0.0360901
7 *25:9 0.00806036
8 *25:7 0.00987174
9 *25:12 *103:13 0.000233283
10 *25:12 *374:13 0
11 *25:15 *34:15 0.00375747
12 *25:15 *209:14 0.0153905
13 *18:16 *419:io_in[31] 2.35125e-05
14 *21:11 *25:15 0.123911
15 *22:19 *25:15 0.0188986
*RES
1 io_in[31] *25:7 13.185 
2 *25:7 *25:9 60.84 
3 *25:9 *25:11 4.5 
4 *25:11 *25:12 275.85 
5 *25:12 *25:14 4.5 
6 *25:14 *25:15 331.65 
7 *25:15 *419:io_in[31] 11.925 
*END

*D_NET *26 0.30563
*CONN
*P io_in[32] I
*I *419:io_in[32] I *D caravel_hack_soc
*CAP
1 io_in[32] 0.00343978
2 *419:io_in[32] 0.0019396
3 *26:19 0.0395413
4 *26:18 0.0376017
5 *26:16 0.00891384
6 *26:15 0.0123536
7 *419:io_in[32] *186:14 0.000500235
8 *26:16 wbs_ack_o 0
9 *26:16 *105:15 0.0515914
10 *26:19 *96:10 0
11 *26:19 *346:16 0.146629
12 *24:11 *26:19 0.00311881
*RES
1 io_in[32] *26:15 30.105 
2 *26:15 *26:16 133.65 
3 *26:16 *26:18 4.5 
4 *26:18 *26:19 469.17 
5 *26:19 *419:io_in[32] 17.685 
*END

*D_NET *27 0.276302
*CONN
*P io_in[33] I
*I *419:io_in[33] I *D caravel_hack_soc
*CAP
1 io_in[33] 0.000312257
2 *419:io_in[33] 6.6198e-05
3 *27:19 0.00794531
4 *27:18 0.00787911
5 *27:16 0.0364083
6 *27:15 0.0364083
7 *27:13 0.042368
8 *27:11 0.0426803
9 *419:io_in[33] *419:io_in[5] 2.33488e-05
10 *27:16 *361:11 0.10215
11 *27:16 *402:11 0
12 *27:19 *419:io_in[5] 6.00829e-05
*RES
1 io_in[33] *27:11 2.475 
2 *27:11 *27:13 319.59 
3 *27:13 *27:15 4.5 
4 *27:15 *27:16 402.93 
5 *27:16 *27:18 4.5 
6 *27:18 *27:19 57.51 
7 *27:19 *419:io_in[33] 9.63 
*END

*D_NET *28 0.431783
*CONN
*P io_in[34] I
*I *419:io_in[34] I *D caravel_hack_soc
*CAP
1 io_in[34] 0.00195899
2 *419:io_in[34] 0.00181253
3 *28:11 0.0379676
4 *28:10 0.036155
5 *28:8 0.0592364
6 *28:7 0.0611954
7 *419:io_in[34] *419:la_oenb[53] 8.73009e-05
8 *419:io_in[34] *224:13 0.00142074
9 *28:8 *62:11 0.0233704
10 *28:8 *313:13 0
11 *28:11 *67:8 0.187625
12 *28:11 *97:8 0
13 *28:11 *106:11 0.00409375
14 *28:11 *183:19 0
15 *28:11 *200:8 0
16 *28:11 *288:12 0.0168601
*RES
1 io_in[34] *28:7 18.765 
2 *28:7 *28:8 484.65 
3 *28:8 *28:10 4.5 
4 *28:10 *28:11 535.77 
5 *28:11 *419:io_in[34] 17.145 
*END

*D_NET *29 0.373509
*CONN
*P io_in[35] I